
 ===================================================
  XFOIL Version 6.99
  Copyright (C) 2000   Mark Drela, Harold Youngren

  This software comes with ABSOLUTELY NO WARRANTY,
    subject to the GNU General Public License.

  Caveat computor
 ===================================================

 File  xfoil.def  not found

   QUIT    Exit program

  .OPER    Direct operating point(s)
  .MDES    Complex mapping design routine
  .QDES    Surface speed design routine
  .GDES    Geometry design routine

   SAVE f  Write airfoil to labeled coordinate file
   PSAV f  Write airfoil to plain coordinate file
   ISAV f  Write airfoil to ISES coordinate file
   MSAV f  Write airfoil to MSES coordinate file
   REVE    Reverse written-airfoil node ordering

   LOAD f  Read buffer airfoil from coordinate file
   NACA i  Set NACA 4,5-digit airfoil and buffer airfoil
   INTE    Set buffer airfoil by interpolating two airfoils
   NORM    Buffer airfoil normalization toggle
   XYCM rr Change CM reference location, currently  0.25000 0.00000

   BEND    Display structural properties of current airfoil

   PCOP    Set current-airfoil panel nodes directly from buffer airfoil points
   PANE    Set current-airfoil panel nodes ( 160 ) based on curvature
  .PPAR    Show/change paneling

  .PLOP    Plotting options

   WDEF f  Write  current-settings file
   RDEF f  Reread current-settings file
   NAME s  Specify new airfoil name
   NINC    Increment name version number

   Z       Zoom    | (available in all menus)
   U       Unzoom  | 

 XFOIL   c>  
 Labeled airfoil file.  Name:  HT 14                                           

 Number of input coordinate points: 143
 Counterclockwise ordering
 Max thickness =     0.075012  at x =   0.192
 Max camber    =     0.041435  at x =   0.800

  LE  x,y  =   0.00002   0.00080  |   Chord =   0.99457
  TE  x,y  =   0.99320  -0.05177  |

 Current airfoil nodes set from buffer airfoil nodes ( 143 )

 XFOIL   c>  
.OPERi   c>  
Enter Reynolds number   r>  
 M  =    0.0000
 Re =    243000

.OPERv   c>   Calculating unit vorticity distributions ...
 Calculating wake trajectory ...
 Calculating source influence matrix ...

 Solving BL system ...

 Initializing BL ...
    side            1  ...
 MRCHUE: Inverse mode at  25     Hk =   4.631
 MRCHUE: Inverse mode at  26     Hk =   5.614
 MRCHUE: Inverse mode at  27     Hk =   6.621
 MRCHUE: Inverse mode at  28     Hk =   7.641
 MRCHUE: Inverse mode at  29     Hk =   8.665
 MRCHUE: Inverse mode at  30     Hk =   7.490
 MRCHUE: Inverse mode at  31     Hk =   3.591
 MRCHUE: Inverse mode at  32     Hk =   2.500
 MRCHUE: Inverse mode at  72     Hk =   2.500
 MRCHUE: Inverse mode at  73     Hk =   2.500
 MRCHUE: Inverse mode at  74     Hk =   2.500
 MRCHUE: Inverse mode at  75     Hk =   2.500
 MRCHUE: Inverse mode at  76     Hk =   2.500
 MRCHUE: Inverse mode at  77     Hk =   2.500
    side            2  ...
 MRCHUE: Inverse mode at  43     Hk =   4.169
 MRCHUE: Inverse mode at  44     Hk =   4.629
 MRCHUE: Inverse mode at  45     Hk =   5.078
 MRCHUE: Inverse mode at  46     Hk =   5.519
 MRCHUE: Inverse mode at  47     Hk =   5.951
 MRCHUE: Inverse mode at  48     Hk =   6.377
 MRCHUE: Inverse mode at  49     Hk =   6.798
 MRCHUE: Inverse mode at  50     Hk =   7.213
 MRCHUE: Inverse mode at  51     Hk =   7.623
 MRCHUE: Inverse mode at  52     Hk =   8.030
 MRCHUE: Inverse mode at  53     Hk =   8.432
 MRCHUE: Inverse mode at  54     Hk =   8.712
 MRCHUE: Inverse mode at  55     Hk =   8.851
 MRCHUE: Inverse mode at  56     Hk =   8.957
 MRCHUE: Inverse mode at  57     Hk =   8.203
 MRCHUE: Inverse mode at  58     Hk =   6.578
 MRCHUE: Inverse mode at  59     Hk =   5.449
 MRCHUE: Inverse mode at  60     Hk =   4.578
 MRCHUE: Inverse mode at  61     Hk =   3.871
 MRCHUE: Inverse mode at  62     Hk =   3.282

 Side 1  free  transition at x/c =  0.1471   30
 Side 2  free  transition at x/c =  0.8105   57

   1   rms: 0.2200E+00   max: -.1171E+01   D at   62  2   RLX: 0.427
       a =  0.000      CL =  0.8938
      Cm = -0.1538     CD =  0.01334   =>   CDf =  0.00820    CDp =  0.00514

 Side 1  free  transition at x/c =  0.1631   31
 Side 2  free  transition at x/c =  0.8042   56

   2   rms: 0.1559E+00   max: -.1175E+01   D at   62  2   RLX: 0.425
       a =  0.000      CL =  0.8599
      Cm = -0.1467     CD =  0.01350   =>   CDf =  0.00802    CDp =  0.00548

 Side 1  free  transition at x/c =  0.1741   32
 Side 2  free  transition at x/c =  0.7972   55
 idif Ue xi dudx           1  0.16556357      2.68673897E-03   61.622498    
 Uenew xinew           2  1.09087713E-02  1.77025795E-04

   3   rms: 0.1379E+00   max: -.1021E+01   T at   32  1   RLX: 0.489
       a =  0.000      CL =  0.8255
      Cm = -0.1397     CD =  0.01432   =>   CDf =  0.00830    CDp =  0.00602

 Side 1  free  transition at x/c =  0.1869   31
 Side 2  free  transition at x/c =  0.7860   55

   4   rms: 0.9639E-01   max: -.7498E+00   T at   31  1   RLX: 0.667
       a =  0.000      CL =  0.7950
      Cm = -0.1337     CD =  0.01607   =>   CDf =  0.00812    CDp =  0.00795

 Side 1  free  transition at x/c =  0.2071   33
 Side 2  free  transition at x/c =  0.7755   54

   5   rms: 0.6234E-01   max: -.4454E+00   C at   33  1
       a =  0.000      CL =  0.7828
      Cm = -0.1306     CD =  0.01471   =>   CDf =  0.00784    CDp =  0.00688

 Side 1  free  transition at x/c =  0.2385   34
 Side 2  free  transition at x/c =  0.7688   54

   6   rms: 0.2133E-01   max: -.2796E+00   C at   34  1
       a =  0.000      CL =  0.7819
      Cm = -0.1305     CD =  0.01515   =>   CDf =  0.00757    CDp =  0.00757

 Side 1  free  transition at x/c =  0.2355   34
 Side 2  free  transition at x/c =  0.7695   54

   7   rms: 0.2289E-02   max: 0.3947E-01   C at   34  1
       a =  0.000      CL =  0.7819
      Cm = -0.1306     CD =  0.01520   =>   CDf =  0.00750    CDp =  0.00770

 Side 1  free  transition at x/c =  0.2345   34
 Side 2  free  transition at x/c =  0.7695   54

   8   rms: 0.3783E-04   max: -.2185E-03   C at   34  1
       a =  0.000      CL =  0.7819
      Cm = -0.1306     CD =  0.01520   =>   CDf =  0.00752    CDp =  0.00769

.OPERv   c>  
  Top    surface:  y =  0.0001     y/t = 1.0
  Bottom surface:  y = -0.0000     y/t = 0.0

 Flap hinge x,y :  0.0000  0.0000
                                           2  2
 Hinge moment/span = 0.326065  x  1/2 rho V  c 
                                           2   
 x-Force     /span = 0.005053  x  1/2 rho V  c 
                                           2   
 y-Force     /span = 0.781880  x  1/2 rho V  c 


.OPERv   c>   SINVRT: spline inversion failed. Input value returned.
 Calculating wake trajectory ...
 Calculating source influence matrix ...

 Solving BL system ...

 Side 1  free  transition at x/c =  0.2345   34
 Side 2  free  transition at x/c =  0.7695   54

   1   rms: 0.2449E+00   max: 0.2282E+01   C at   34  1   RLX: 0.378
       a =  1.000      CL =  0.8188
      Cm = -0.1291     CD =  0.01579   =>   CDf =  0.00736    CDp =  0.00843

 Side 1  free  transition at x/c =  0.1948   33
 Side 2  free  transition at x/c =  0.7824   53

   2   rms: 0.1756E+00   max: 0.1110E+01   T at   33  1   RLX: 0.465
       a =  1.000      CL =  0.8524
      Cm = -0.1294     CD =  0.01697   =>   CDf =  0.00777    CDp =  0.00920

 Side 1  free  transition at x/c =  0.1707   32
 Side 2  free  transition at x/c =  0.8000   55

   3   rms: 0.1005E+00   max: -.8698E+00   D at   33  1   RLX: 0.575
       a =  1.000      CL =  0.8658
      Cm = -0.1274     CD =  0.01659   =>   CDf =  0.00796    CDp =  0.00863

 Side 1  free  transition at x/c =  0.1644   31
 Side 2  free  transition at x/c =  0.8040   56

   4   rms: 0.4796E-01   max: -.4484E+00   D at   33  1
       a =  1.000      CL =  0.8828
      Cm = -0.1276     CD =  0.01632   =>   CDf =  0.00787    CDp =  0.00844

 Side 1  free  transition at x/c =  0.1510   30
 Side 2  free  transition at x/c =  0.8080   56

   5   rms: 0.1159E-01   max: -.8515E-01   D at   58  2
       a =  1.000      CL =  0.8838
      Cm = -0.1279     CD =  0.01682   =>   CDf =  0.00799    CDp =  0.00883

 Side 1  free  transition at x/c =  0.1500   30
 Side 2  free  transition at x/c =  0.8090   57

   6   rms: 0.3462E-02   max: -.7278E-01   D at   56  2
       a =  1.000      CL =  0.8835
      Cm = -0.1279     CD =  0.01680   =>   CDf =  0.00798    CDp =  0.00882

 Side 1  free  transition at x/c =  0.1500   30
 Side 2  free  transition at x/c =  0.8087   57

   7   rms: 0.2760E-03   max: 0.3379E-02   D at   58  2
       a =  1.000      CL =  0.8835
      Cm = -0.1279     CD =  0.01680   =>   CDf =  0.00797    CDp =  0.00883

 Side 1  free  transition at x/c =  0.1500   30
 Side 2  free  transition at x/c =  0.8087   57

   8   rms: 0.1161E-05   max: -.1356E-04   T at   57  2
       a =  1.000      CL =  0.8835
      Cm = -0.1279     CD =  0.01680   =>   CDf =  0.00797    CDp =  0.00883
 SINVRT: spline inversion failed. Input value returned.

.OPERv   c>   SINVRT: spline inversion failed. Input value returned.

 Flap hinge x,y :  0.0000  0.0000
                                           2  2
 Hinge moment/span = 0.126787  x  1/2 rho V  c 
                                           2   
 x-Force     /span = 0.024369  x  1/2 rho V  c 
                                           2   
 y-Force     /span = 0.250922  x  1/2 rho V  c 


.OPERv   c>   SINVRT: spline inversion failed. Input value returned.
 Calculating wake trajectory ...
 Calculating source influence matrix ...

 Solving BL system ...

 Side 1  free  transition at x/c =  0.1500   30
 Side 2  free  transition at x/c =  0.8087   57

   1   rms: 0.2099E+00   max: -.1360E+01   T at   57  2   RLX: 0.368
       a =  2.000      CL =  0.9207
      Cm = -0.1266     CD =  0.01672   =>   CDf =  0.00779    CDp =  0.00893

 Side 1  free  transition at x/c =  0.1315   30
 Side 2  free  transition at x/c =  0.8201   57

   2   rms: 0.1705E+00   max: -.1248E+01   T at   57  2   RLX: 0.401
       a =  2.000      CL =  0.9466
      Cm = -0.1262     CD =  0.01746   =>   CDf =  0.00801    CDp =  0.00945

 Side 1  free  transition at x/c =  0.1198   30
 Side 2  free  transition at x/c =  0.8313   57

   3   rms: 0.1063E+00   max: -.8230E+00   D at   30  1   RLX: 0.607
       a =  2.000      CL =  0.9724
      Cm = -0.1264     CD =  0.01895   =>   CDf =  0.00801    CDp =  0.01094

 MRCHDU: Convergence failed at  30  side 1    Res =  0.2377E+01
 MRCHDU: Convergence failed at  31  side 1    Res =  0.2067E+01
 MRCHDU: Convergence failed at  32  side 1    Res =  0.1471E+01
 MRCHDU: Convergence failed at  33  side 1    Res =  0.1592E+01
 MRCHDU: Convergence failed at  34  side 1    Res =  0.1842E+01
 MRCHDU: Convergence failed at  35  side 1    Res =  0.2074E+01
 MRCHDU: Convergence failed at  36  side 1    Res =  0.2345E+01
 MRCHDU: Convergence failed at  37  side 1    Res =  0.2555E+01
 MRCHDU: Convergence failed at  38  side 1    Res =  0.2783E+01
 MRCHDU: Convergence failed at  39  side 1    Res =  0.2942E+01
 MRCHDU: Convergence failed at  40  side 1    Res =  0.3102E+01
 MRCHDU: Convergence failed at  41  side 1    Res =  0.3241E+01
 MRCHDU: Convergence failed at  42  side 1    Res =  0.3341E+01
 MRCHDU: Convergence failed at  43  side 1    Res =  0.3355E+01
 MRCHDU: Convergence failed at  44  side 1    Res =  0.3336E+01
 MRCHDU: Convergence failed at  45  side 1    Res =  0.7748E+01
 MRCHDU: Convergence failed at  46  side 1    Res =  0.8635E+01
 MRCHDU: Convergence failed at  47  side 1    Res =  0.9579E+01
 MRCHDU: Convergence failed at  48  side 1    Res =  0.1069E+02
 MRCHDU: Convergence failed at  49  side 1    Res =  0.1176E+02
 MRCHDU: Convergence failed at  50  side 1    Res =  0.1291E+02
 MRCHDU: Convergence failed at  51  side 1    Res =  0.1397E+02
 MRCHDU: Convergence failed at  52  side 1    Res =  0.1505E+02
 MRCHDU: Convergence failed at  53  side 1    Res =  0.1625E+02
 MRCHDU: Convergence failed at  54  side 1    Res =  0.1731E+02
 MRCHDU: Convergence failed at  55  side 1    Res =  0.1809E+02
 MRCHDU: Convergence failed at  56  side 1    Res =  0.1887E+02
 MRCHDU: Convergence failed at  57  side 1    Res =  0.1891E+02
 MRCHDU: Convergence failed at  58  side 1    Res =  0.1884E+02
 MRCHDU: Convergence failed at  59  side 1    Res =  0.1806E+02
 MRCHDU: Convergence failed at  60  side 1    Res =  0.1668E+02
 MRCHDU: Convergence failed at  61  side 1    Res =  0.1474E+02
 MRCHDU: Convergence failed at  62  side 1    Res =  0.1231E+02
 MRCHDU: Convergence failed at  63  side 1    Res =  0.9604E+01
 MRCHDU: Convergence failed at  64  side 1    Res =  0.6552E+01
 MRCHDU: Convergence failed at  65  side 1    Res =  0.2819E+01
 MRCHDU: Convergence failed at  66  side 1    Res =  0.7246E+01
 MRCHDU: Convergence failed at  67  side 1    Res =  0.1100E+02
 MRCHDU: Convergence failed at  68  side 1    Res =  0.7191E+02
 MRCHDU: Convergence failed at  69  side 1    Res =  0.1321E+02
 MRCHDU: Convergence failed at  70  side 1    Res =  0.2191E+02
 MRCHDU: Convergence failed at  71  side 1    Res =  0.3188E+02
 MRCHDU: Convergence failed at  72  side 1    Res =  0.1859E+02
 MRCHDU: Convergence failed at  73  side 1    Res =  0.8828E+02
 MRCHDU: Convergence failed at  74  side 1    Res =  0.6433E+02
 MRCHDU: Convergence failed at  75  side 1    Res =  0.1216E+02
 MRCHDU: Convergence failed at  76  side 1    Res =  0.2642E+02
 MRCHDU: Convergence failed at  77  side 1    Res =  0.3585E+02
 MRCHDU: Convergence failed at  78  side 1    Res =  0.1373E+02
 Side 1  free  transition at x/c =  0.1113   29
 Side 2  free  transition at x/c =  0.8388   58

   4   rms: 0.5599E+00   max: 0.2345E+01   D at   71  2   RLX: 0.640
       a =  2.000      CL =  1.2499
      Cm = -0.2284     CD =  0.01075   =>   CDf =  0.00240    CDp =  0.00835

 MRCHDU: Convergence failed at  29  side 1    Res =  0.2266E+01
 MRCHDU: Convergence failed at  70  side 2    Res =  0.1756E+01
 MRCHDU: Convergence failed at  71  side 2    Res =  0.3807E+01
 MRCHDU: Convergence failed at  72  side 2    Res =  0.1023E+02
 MRCHDU: Convergence failed at  73  side 2    Res =  0.2736E+01
 MRCHDU: Convergence failed at  74  side 2    Res =  0.2125E+01
 MRCHDU: Convergence failed at  75  side 2    Res =  0.3811E+01
 Side 1  free  transition at x/c =  0.0959   28
 Side 2  free  transition at x/c =  0.8486   58

   5   rms: 0.2019E+00   max: -.1048E+01   T at   28  1   RLX: 0.477
       a =  2.000      CL =  1.0648
      Cm = -0.1616     CD =  0.02047   =>   CDf =  0.00851    CDp =  0.01196

 Side 1  free  transition at x/c =  0.1068   29
 Side 2  free  transition at x/c =  0.8470   58

   6   rms: 0.1514E+00   max: -.8584E+00   D at   68  1   RLX: 0.582
       a =  2.000      CL =  1.0030
      Cm = -0.1347     CD =  0.01843   =>   CDf =  0.00812    CDp =  0.01032

 Side 1  free  transition at x/c =  0.1068   29
 Side 2  free  transition at x/c =  0.8452   58

   7   rms: 0.1471E+00   max: -.7803E+00   D at   68  1   RLX: 0.641
       a =  2.000      CL =  1.0202
      Cm = -0.1318     CD =  0.01727   =>   CDf =  0.00777    CDp =  0.00950

 MRCHDU: Convergence failed at  30  side 1    Res =  0.1119E+02
 MRCHDU: Convergence failed at  31  side 1    Res =  0.1755E+01
 MRCHDU: Convergence failed at  32  side 1    Res =  0.1907E+01
 MRCHDU: Convergence failed at  33  side 1    Res =  0.2699E+01
 MRCHDU: Convergence failed at  34  side 1    Res =  0.3678E+01
 MRCHDU: Convergence failed at  35  side 1    Res =  0.4918E+01
 MRCHDU: Convergence failed at  36  side 1    Res =  0.5996E+01
 MRCHDU: Convergence failed at  37  side 1    Res =  0.7034E+01
 MRCHDU: Convergence failed at  38  side 1    Res =  0.7764E+01
 MRCHDU: Convergence failed at  39  side 1    Res =  0.7872E+01
 MRCHDU: Convergence failed at  40  side 1    Res =  0.7311E+01
 MRCHDU: Convergence failed at  41  side 1    Res =  0.7312E+01
 MRCHDU: Convergence failed at  42  side 1    Res =  0.7353E+01
 MRCHDU: Convergence failed at  43  side 1    Res =  0.7266E+01
 MRCHDU: Convergence failed at  44  side 1    Res =  0.6652E+01
 MRCHDU: Convergence failed at  45  side 1    Res =  0.6568E+01
 MRCHDU: Convergence failed at  46  side 1    Res =  0.5997E+01
 MRCHDU: Convergence failed at  47  side 1    Res =  0.5571E+01
 MRCHDU: Convergence failed at  48  side 1    Res =  0.5219E+01
 MRCHDU: Convergence failed at  49  side 1    Res =  0.5143E+01
 MRCHDU: Convergence failed at  50  side 1    Res =  0.2452E+02
 MRCHDU: Convergence failed at  51  side 1    Res =  0.2847E+02
 MRCHDU: Convergence failed at  52  side 1    Res =  0.3336E+02
 MRCHDU: Convergence failed at  53  side 1    Res =  0.3614E+02
 MRCHDU: Convergence failed at  54  side 1    Res =  0.4192E+02
 MRCHDU: Convergence failed at  55  side 1    Res =  0.4282E+02
 MRCHDU: Convergence failed at  56  side 1    Res =  0.4728E+02
 MRCHDU: Convergence failed at  57  side 1    Res =  0.5207E+02
 MRCHDU: Convergence failed at  58  side 1    Res =  0.5330E+02
 MRCHDU: Convergence failed at  59  side 1    Res =  0.5350E+02
 MRCHDU: Convergence failed at  60  side 1    Res =  0.4962E+02
 MRCHDU: Convergence failed at  61  side 1    Res =  0.4282E+02
 MRCHDU: Convergence failed at  62  side 1    Res =  0.3720E+02
 MRCHDU: Convergence failed at  63  side 1    Res =  0.2732E+02
 MRCHDU: Convergence failed at  64  side 1    Res =  0.1855E+02
 MRCHDU: Convergence failed at  65  side 1    Res =  0.4959E+01
 MRCHDU: Convergence failed at  66  side 1    Res =  0.3392E+01
 MRCHDU: Convergence failed at  67  side 1    Res =  0.7595E+01
 MRCHDU: Convergence failed at  68  side 1    Res =  0.8569E+01
 MRCHDU: Convergence failed at  69  side 1    Res =  0.1620E+02
 MRCHDU: Convergence failed at  70  side 1    Res =  0.2869E+02
 MRCHDU: Convergence failed at  71  side 1    Res =  0.5024E+03
 MRCHDU: Convergence failed at  72  side 1    Res =  0.1762E+02
 MRCHDU: Convergence failed at  73  side 1    Res =  0.3221E+02
 MRCHDU: Convergence failed at  74  side 1    Res =  0.3737E+02
 MRCHDU: Convergence failed at  75  side 1    Res =  0.6841E+02
 MRCHDU: Convergence failed at  76  side 1    Res =  0.2151E+02
 MRCHDU: Convergence failed at  77  side 1    Res =  0.1799E+02
 MRCHDU: Convergence failed at  78  side 1    Res =  0.2689E+02
 MRCHDU: Convergence failed at  79  side 1    Res =  0.1674E+02
 Side 1  free  transition at x/c =  0.1009   29
 Side 2  free  transition at x/c =  0.8446   57

   8   rms: 0.8374E+00   max: 0.3758E+01   D at   68  2   RLX: 0.399
       a =  2.000      CL =  1.5700
      Cm = -0.3311     CD =  0.00808   =>   CDf =  0.00221    CDp =  0.00587

 MRCHDU: Convergence failed at  47  side 1    Res =  0.1652E-01
 MRCHDU: Convergence failed at  68  side 2    Res =  0.2327E+01
 MRCHDU: Convergence failed at  69  side 2    Res =  0.3619E+01
 MRCHDU: Convergence failed at  70  side 2    Res =  0.8471E+01
 MRCHDU: Convergence failed at  71  side 2    Res =  0.1009E+02
 MRCHDU: Convergence failed at  72  side 2    Res =  0.4305E+01
 MRCHDU: Convergence failed at  73  side 2    Res =  0.4962E+01
 MRCHDU: Convergence failed at  74  side 2    Res =  0.2673E+02
 MRCHDU: Convergence failed at  75  side 2    Res =  0.7286E+01
 MRCHDU: Convergence failed at  76  side 2    Res =  0.3420E+01
 MRCHDU: Convergence failed at  77  side 2    Res =  0.2597E+01
 Side 1  free  transition at x/c =  0.0866   28
 Side 2  free  transition at x/c =  0.8485   57
 idif Ue xi dudx           1  0.13963810      3.19945812E-03   43.644295    
 Uenew xinew           2  1.08842691E-02  2.49385834E-04

   9   rms: 0.4971E+00   max: -.3573E+01   T at   28  1   RLX: 0.140
       a =  2.000      CL =  1.2291
      Cm = -0.2325     CD =  0.03552   =>   CDf =  0.00488    CDp =  0.03064

 MRCHDU: Convergence failed at  36  side 1    Res =  0.5521E-01
 MRCHDU: Convergence failed at  46  side 1    Res =  0.1096E+00
 MRCHDU: Convergence failed at  47  side 1    Res =  0.2504E+00
 MRCHDU: Convergence failed at  57  side 1    Res =  0.3956E+00
 MRCHDU: Convergence failed at  58  side 1    Res =  0.6532E+00
 MRCHDU: Convergence failed at  59  side 1    Res =  0.1440E+00
 MRCHDU: Convergence failed at  60  side 1    Res =  0.1251E+00
 MRCHDU: Convergence failed at  61  side 1    Res =  0.8873E-01
 MRCHDU: Convergence failed at  63  side 1    Res =  0.1612E+01
 MRCHDU: Convergence failed at  64  side 1    Res =  0.1306E+01
 Side 1  free  transition at x/c =  0.0971   28
 Side 2  free  transition at x/c =  0.8459   58

  10   rms: 0.5817E+00   max: -.2907E+01   T at   28  1   RLX: 0.172
       a =  2.000      CL =  1.0108
      Cm = -0.1560     CD =  0.03675   =>   CDf =  0.00490    CDp =  0.03186
 VISCAL:  Convergence failed
 SINVRT: spline inversion failed. Input value returned.
 Type "!" to continue iterating

.OPERv   c>   SINVRT: spline inversion failed. Input value returned.

 Flap hinge x,y :  0.0000  0.0000
                                           2  2
 Hinge moment/span = 0.387118  x  1/2 rho V  c 
                                           2   
 x-Force     /span = 0.048766  x  1/2 rho V  c 
                                           2   
 y-Force     /span = 0.788860  x  1/2 rho V  c 


.OPERv   c>   SINVRT: spline inversion failed. Input value returned.
 Calculating wake trajectory ...
 Calculating source influence matrix ...

 Solving BL system ...

 MRCHDU: Convergence failed at  36  side 1    Res =  0.7616E-01
 MRCHDU: Convergence failed at  61  side 1    Res =  0.3924E+00
 MRCHDU: Convergence failed at  62  side 1    Res =  0.4487E+00
 MRCHDU: Convergence failed at  63  side 1    Res =  0.4196E+00
 MRCHDU: Convergence failed at  64  side 1    Res =  0.4085E+00
 MRCHDU: Convergence failed at  65  side 1    Res =  0.2819E+00
 MRCHDU: Convergence failed at  66  side 1    Res =  0.7869E+00
 MRCHDU: Convergence failed at  67  side 1    Res =  0.2511E+00
 MRCHDU: Convergence failed at  68  side 1    Res =  0.2275E+00
 MRCHDU: Convergence failed at  69  side 1    Res =  0.1971E+00
 MRCHDU: Convergence failed at  70  side 1    Res =  0.1685E+00
 MRCHDU: Convergence failed at  71  side 1    Res =  0.1408E+00
 MRCHDU: Convergence failed at  72  side 1    Res =  0.1139E+00
 MRCHDU: Convergence failed at  73  side 1    Res =  0.8766E-01
 MRCHDU: Convergence failed at  74  side 1    Res =  0.4506E+01
 MRCHDU: Convergence failed at  75  side 1    Res =  0.3347E+01
 MRCHDU: Convergence failed at  76  side 1    Res =  0.2495E+01
 MRCHDU: Convergence failed at  77  side 1    Res =  0.2047E+01
 MRCHDU: Convergence failed at  78  side 1    Res =  0.1907E+01
 Side 1  free  transition at x/c =  0.1088   29
 Side 2  free  transition at x/c =  0.8435   58

   1   rms: 0.8344E+00   max: -.4543E+01   D at   73  1   RLX: 0.110
       a =  3.000      CL =  0.8874
      Cm = -0.0798     CD =  0.02748   =>   CDf =  0.00452    CDp =  0.02296

 MRCHDU: Convergence failed at  36  side 1    Res =  0.5131E-01
 MRCHDU: Convergence failed at  73  side 1    Res =  0.4800E+00
 MRCHDU: Convergence failed at  74  side 1    Res =  0.4176E+00
 MRCHDU: Convergence failed at  75  side 1    Res =  0.3878E+00
 MRCHDU: Convergence failed at  76  side 1    Res =  0.3737E+00
 MRCHDU: Convergence failed at  77  side 1    Res =  0.3718E+00
 MRCHDU: Convergence failed at  78  side 1    Res =  0.3902E+00
 Side 1  free  transition at x/c =  0.1087   29
 Side 2  free  transition at x/c =  0.8482   58

   2   rms: 0.1222E+01   max: -.7548E+01   D at   32  1   RLX: 0.066
       a =  3.000      CL =  0.8690
      Cm = -0.0438     CD =  0.05548   =>   CDf =  0.00374    CDp =  0.05174

 MRCHDU: Convergence failed at  32  side 1    Res =  0.1407E+01
 MRCHDU: Convergence failed at  33  side 1    Res =  0.8284E+00
 MRCHDU: Convergence failed at  34  side 1    Res =  0.1809E+01
 MRCHDU: Convergence failed at  35  side 1    Res =  0.1218E+01
 MRCHDU: Convergence failed at  36  side 1    Res =  0.4082E+01
 Side 1  free  transition at x/c =  0.1042   30
 Side 2  free  transition at x/c =  0.8524   57
 idif Ue xi dudx           1  0.15535377      3.39639187E-03   45.740826    
 Uenew xinew           2  2.04150267E-02  4.46319580E-04

   3   rms: 0.1436E+02   max: -.8411E+02   D at    2  1   RLX: 0.006
       a =  3.000      CL =  0.9631
      Cm = -0.0506     CD =  0.07120   =>   CDf =  0.00567    CDp =  0.06553

 Side 1  free  transition at x/c =  0.1168   29
 Side 2  free  transition at x/c =  0.8494   58

   4   rms: 0.3213E+01   max: -.1361E+02   C at   29  1   RLX: 0.037
       a =  3.000      CL =  1.0519
      Cm = -0.0543     CD =  0.05440   =>   CDf =  0.00465    CDp =  0.04975

 Side 1  free  transition at x/c =  0.1025   29
 Side 2  free  transition at x/c =  0.8555   57
 idif Ue xi dudx           1  0.15877120      3.34286690E-03   47.495522    
 Uenew xinew           2  1.86559856E-02  3.92794609E-04

   5   rms: 0.4928E+01   max: 0.1726E+02   C at   29  1   RLX: 0.032
       a =  3.000      CL =  0.9884
      Cm = -0.0699     CD =  0.07173   =>   CDf =  0.00534    CDp =  0.06639

 Side 1  free  transition at x/c =  0.1168   29
 Side 2  free  transition at x/c =  0.8509   58

   6   rms: 0.3516E+01   max: 0.1472E+02   T at   29  1   RLX: 0.036
       a =  3.000      CL =  1.0082
      Cm = -0.0438     CD =  0.05514   =>   CDf =  0.00467    CDp =  0.05047

 Side 1  free  transition at x/c =  0.1034   30
 Side 2  free  transition at x/c =  0.8565   57

   7   rms: 0.3509E+01   max: 0.1419E+02   T at   30  1   RLX: 0.038
       a =  3.000      CL =  1.0426
      Cm = -0.0384     CD =  0.04239   =>   CDf =  0.00522    CDp =  0.03717

 MRCHDU: Convergence failed at  30  side 1    Res =  0.3200E+01
 Side 1  free  transition at x/c =  0.0984   29
 Side 2  free  transition at x/c =  0.8615   58

   8   rms: 0.9882E+00   max: -.3229E+01   D at   67  1   RLX: 0.155
       a =  3.000      CL =  1.0651
      Cm = -0.0450     CD =  0.02369   =>   CDf =  0.00644    CDp =  0.01725

 Side 1  free  transition at x/c =  0.0890   29
 Side 2  free  transition at x/c =  0.8670   58

   9   rms: 0.4705E+00   max: 0.2437E+01   T at   29  1   RLX: 0.306
       a =  3.000      CL =  1.0723
      Cm = -0.0672     CD =  0.02663   =>   CDf =  0.00670    CDp =  0.01993

 MRCHDU: Convergence failed at  29  side 1    Res =  0.5688E+01
 Side 1  free  transition at x/c =  0.0836   28
 Side 2  free  transition at x/c =  0.8727   58

  10   rms: 0.3311E+00   max: 0.1753E+01   T at   28  1   RLX: 0.385
       a =  3.000      CL =  1.1136
      Cm = -0.0907     CD =  0.02172   =>   CDf =  0.00666    CDp =  0.01506
 VISCAL:  Convergence failed
 SINVRT: spline inversion failed. Input value returned.
 Type "!" to continue iterating

.OPERv   c>   SINVRT: spline inversion failed. Input value returned.

 Flap hinge x,y :  0.0000  0.0000
                                           2  2
 Hinge moment/span = 0.145558  x  1/2 rho V  c 
                                           2   
 x-Force     /span = 0.016230  x  1/2 rho V  c 
                                           2   
 y-Force     /span = 0.314597  x  1/2 rho V  c 


.OPERv   c>   SINVRT: spline inversion failed. Input value returned.
 Calculating wake trajectory ...
 Calculating source influence matrix ...

 Solving BL system ...

 Side 1  free  transition at x/c =  0.0718   28
 Side 2  free  transition at x/c =  0.8759   58

   1   rms: 0.3244E+00   max: 0.2492E+01   T at   28  1   RLX: 0.311
       a =  4.000      CL =  1.1539
      Cm = -0.1031     CD =  0.02355   =>   CDf =  0.00766    CDp =  0.01590

 Side 1  free  transition at x/c =  0.0605   27
 Side 2  free  transition at x/c =  0.8938   58

   2   rms: 0.2169E+00   max: 0.1557E+01   T at   27  1   RLX: 0.552
       a =  4.000      CL =  1.1942
      Cm = -0.1160     CD =  0.02304   =>   CDf =  0.00742    CDp =  0.01562

 Side 1  free  transition at x/c =  0.0503   27
 Side 2  free  transition at x/c =  0.9273   59

   3   rms: 0.1734E+01   max: -.2309E+02   C at   59  2   RLX: 0.022
       a =  4.000      CL =  1.1976
      Cm = -0.1163     CD =  0.02641   =>   CDf =  0.00756    CDp =  0.01885

 Side 1  free  transition at x/c =  0.0501   27
 Side 2  free  transition at x/c =  0.9290   59

   4   rms: 0.2468E+01   max: -.3071E+02   C at   59  2   RLX: 0.016
       a =  4.000      CL =  1.1971
      Cm = -0.1163     CD =  0.02631   =>   CDf =  0.00756    CDp =  0.01876

 Side 1  free  transition at x/c =  0.0500   27
 Side 2  free  transition at x/c =  0.9301   59

   5   rms: 0.3162E+01   max: -.3757E+02   C at   59  2   RLX: 0.013
       a =  4.000      CL =  1.1967
      Cm = -0.1163     CD =  0.02623   =>   CDf =  0.00755    CDp =  0.01868

 Side 1  free  transition at x/c =  0.0500   27
 Side 2  free  transition at x/c =  0.9310   59

   6   rms: 0.3911E+01   max: -.4495E+02   C at   59  2   RLX: 0.011
       a =  4.000      CL =  1.1964
      Cm = -0.1162     CD =  0.02617   =>   CDf =  0.00754    CDp =  0.01862

 Side 1  free  transition at x/c =  0.0499   27
 Side 2  free  transition at x/c =  0.9317   59

   7   rms: 0.4742E+01   max: -.5322E+02   C at   59  2   RLX: 0.009
       a =  4.000      CL =  1.1961
      Cm = -0.1162     CD =  0.02611   =>   CDf =  0.00754    CDp =  0.01858

 Side 1  free  transition at x/c =  0.0499   27
 Side 2  free  transition at x/c =  0.9341   60

   8   rms: 0.9462E+01   max: -.1157E+03   C at   60  2   RLX: 0.004
       a =  4.000      CL =  1.1966
      Cm = -0.1167     CD =  0.02610   =>   CDf =  0.00751    CDp =  0.01860

 Side 1  free  transition at x/c =  0.0498   27
 Side 2  free  transition at x/c =  0.9417   60

   9   rms: 0.1085E+02   max: -.1304E+03   C at   60  2   RLX: 0.004
       a =  4.000      CL =  1.1965
      Cm = -0.1167     CD =  0.02608   =>   CDf =  0.00750    CDp =  0.01857

 Side 1  free  transition at x/c =  0.0498   27
 Side 2  free  transition at x/c =  0.9473   60

  10   rms: 0.1115E+02   max: -.1328E+03   C at   60  2   RLX: 0.004
       a =  4.000      CL =  1.1963
      Cm = -0.1166     CD =  0.02605   =>   CDf =  0.00750    CDp =  0.01855
 VISCAL:  Convergence failed
 SINVRT: spline inversion failed. Input value returned.
 Type "!" to continue iterating

.OPERv   c>   SINVRT: spline inversion failed. Input value returned.

 Flap hinge x,y :  0.0000  0.0000
                                           2  2
 Hinge moment/span = 0.164261  x  1/2 rho V  c 
                                           2   
 x-Force     /span = 0.012580  x  1/2 rho V  c 
                                           2   
 y-Force     /span = 0.357998  x  1/2 rho V  c 


.OPERv   c>   SINVRT: spline inversion failed. Input value returned.
 Calculating wake trajectory ...
 Calculating source influence matrix ...

 Solving BL system ...

 Side 1  free  transition at x/c =  0.0498   27
 Side 2  free  transition at x/c =  0.9521   61

   1   rms: 0.7415E+01   max: -.9639E+02   C at   61  2   RLX: 0.005
       a =  5.000      CL =  1.1964
      Cm = -0.1166     CD =  0.02604   =>   CDf =  0.00751    CDp =  0.01853

 Side 1  free  transition at x/c =  0.0497   27
 Side 2  free  transition at x/c =  0.9738   62

   2   rms: 0.7921E+01   max: -.1178E+03   C at   62  2   RLX: 0.004
       a =  5.000      CL =  1.1967
      Cm = -0.1166     CD =  0.02602   =>   CDf =  0.00751    CDp =  0.01852

 Side 1  free  transition at x/c =  0.0496   27
 Side 2  free  transition at x/c =  0.9943   64

   3   rms: 0.2006E+02   max: -.5136E+03   C at   64  2   RLX: 0.001
       a =  5.000      CL =  1.1969
      Cm = -0.1166     CD =  0.02602   =>   CDf =  0.00751    CDp =  0.01851

 Side 1  free  transition at x/c =  0.0495   27
 Side 2  free  transition at x/c =  0.9977   64

   4   rms: 0.1593E+02   max: -.4078E+03   C at   64  2   RLX: 0.001
       a =  5.000      CL =  1.1972
      Cm = -0.1167     CD =  0.02602   =>   CDf =  0.00750    CDp =  0.01851

 Side 1  free  transition at x/c =  0.0495   27
 Side 2 forced transition at x/c =  0.9998   64

   5   rms: 0.2647E+00   max: 0.2128E+01   T at   27  1   RLX: 0.467
       a =  5.000      CL =  1.2390
      Cm = -0.1165     CD =  0.02470   =>   CDf =  0.00750    CDp =  0.01720

 MRCHDU: Convergence failed at  27  side 1    Res =  0.3481E+01
 MRCHDU: Convergence failed at  28  side 1    Res =  0.2181E+02
 MRCHDU: Convergence failed at  29  side 1    Res =  0.1450E+02
 MRCHDU: Convergence failed at  30  side 1    Res =  0.1647E+02
 MRCHDU: Convergence failed at  31  side 1    Res =  0.1130E+02
 MRCHDU: Convergence failed at  32  side 1    Res =  0.1517E+02
 MRCHDU: Convergence failed at  33  side 1    Res =  0.2127E+02
 MRCHDU: Convergence failed at  34  side 1    Res =  0.4171E+02
 MRCHDU: Convergence failed at  35  side 1    Res =  0.2814E+02
 MRCHDU: Convergence failed at  36  side 1    Res =  0.2389E+02
 MRCHDU: Convergence failed at  37  side 1    Res =  0.2159E+02
 MRCHDU: Convergence failed at  38  side 1    Res =  0.3094E+02
 MRCHDU: Convergence failed at  39  side 1    Res =  0.1028E+03
 MRCHDU: Convergence failed at  40  side 1    Res =  0.2049E+02
 MRCHDU: Convergence failed at  41  side 1    Res =  0.3925E+02
 MRCHDU: Convergence failed at  42  side 1    Res =  0.2736E+02
 MRCHDU: Convergence failed at  43  side 1    Res =  0.2760E+02
 MRCHDU: Convergence failed at  44  side 1    Res =  0.3057E+02
 MRCHDU: Convergence failed at  45  side 1    Res =  0.5944E+02
 MRCHDU: Convergence failed at  46  side 1    Res =  0.6702E+02
 MRCHDU: Convergence failed at  47  side 1    Res =  0.7558E+02
 MRCHDU: Convergence failed at  48  side 1    Res =  0.5160E+02
 MRCHDU: Convergence failed at  49  side 1    Res =  0.4115E+02
 MRCHDU: Convergence failed at  50  side 1    Res =  0.2162E+02
 MRCHDU: Convergence failed at  51  side 1    Res =  0.2474E+02
 MRCHDU: Convergence failed at  52  side 1    Res =  0.2405E+02
 MRCHDU: Convergence failed at  53  side 1    Res =  0.2334E+02
 MRCHDU: Convergence failed at  54  side 1    Res =  0.2308E+02
 MRCHDU: Convergence failed at  55  side 1    Res =  0.3527E+02
 MRCHDU: Convergence failed at  56  side 1    Res =  0.4411E+02
 MRCHDU: Convergence failed at  57  side 1    Res =  0.3337E+02
 MRCHDU: Convergence failed at  58  side 1    Res =  0.2942E+02
 MRCHDU: Convergence failed at  59  side 1    Res =  0.2696E+02
 MRCHDU: Convergence failed at  60  side 1    Res =  0.4306E+02
 MRCHDU: Convergence failed at  61  side 1    Res =  0.2808E+02
 MRCHDU: Convergence failed at  62  side 1    Res =  0.2811E+02
 MRCHDU: Convergence failed at  63  side 1    Res =  0.2701E+02
 MRCHDU: Convergence failed at  64  side 1    Res =  0.3031E+02
 MRCHDU: Convergence failed at  65  side 1    Res =  0.2935E+02
 MRCHDU: Convergence failed at  66  side 1    Res =  0.2705E+04
 MRCHDU: Convergence failed at  67  side 1    Res =  0.7955E+03
 MRCHDU: Convergence failed at  68  side 1    Res =  0.3911E+04
 MRCHDU: Convergence failed at  69  side 1    Res =  0.3660E+02
 MRCHDU: Convergence failed at  70  side 1    Res =  0.3109E+02
 MRCHDU: Convergence failed at  71  side 1    Res =  0.2824E+02
 MRCHDU: Convergence failed at  72  side 1    Res =  0.8636E+02
 MRCHDU: Convergence failed at  73  side 1    Res =  0.3189E+03
 MRCHDU: Convergence failed at  74  side 1    Res =  0.2667E+03
 MRCHDU: Convergence failed at  75  side 1    Res =  0.6645E+02
 MRCHDU: Convergence failed at  76  side 1    Res =  0.4149E+02
 MRCHDU: Convergence failed at  77  side 1    Res =  0.2742E+02
 MRCHDU: Convergence failed at  78  side 1    Res =  0.1382E+03
 MRCHDU: Convergence failed at  79  side 1    Res =  0.3725E+03
 MRCHDU: Convergence failed at  80  side 1    Res =  0.1506E+03
 MRCHDU: Convergence failed at  81  side 1    Res =  0.9575E+02
 Side 1  free  transition at x/c =  0.0407   26
 Side 2 forced transition at x/c =  0.9998   64

   6   rms: 0.1557E+01   max: 0.7084E+01   D at   67  2   RLX: 0.079
       a =  5.000      CL =  3.2372
      Cm = -0.7649     CD =  0.00659   =>   CDf =  0.00161    CDp =  0.00498

 MRCHDU: Convergence failed at  33  side 1    Res =  0.3170E+00
 MRCHDU: Convergence failed at  34  side 1    Res =  0.2849E+00
 MRCHDU: Convergence failed at  35  side 1    Res =  0.2159E+00
 MRCHDU: Convergence failed at  37  side 1    Res =  0.4028E+00
 MRCHDU: Convergence failed at  38  side 1    Res =  0.3882E+00
 MRCHDU: Convergence failed at  39  side 1    Res =  0.3719E+00
 MRCHDU: Convergence failed at  40  side 1    Res =  0.3545E+00
 MRCHDU: Convergence failed at  41  side 1    Res =  0.3342E+00
 MRCHDU: Convergence failed at  42  side 1    Res =  0.3120E+00
 MRCHDU: Convergence failed at  43  side 1    Res =  0.2836E+00
 MRCHDU: Convergence failed at  44  side 1    Res =  0.2514E+00
 MRCHDU: Convergence failed at  45  side 1    Res =  0.2097E+00
 MRCHDU: Convergence failed at  46  side 1    Res =  0.1510E+00
 MRCHDU: Convergence failed at  80  side 1    Res =  0.1158E-01
 MRCHDU: Convergence failed at  81  side 1    Res =  0.4130E-02
 Side 1  free  transition at x/c =  0.0382   25
 Side 2 forced transition at x/c =  0.9998   64

   7   rms: 0.9490E+00   max: 0.2057E+01   C at   64  2   RLX: 0.116
       a =  5.000      CL =  2.3477
      Cm = -0.5146     CD =  0.02197   =>   CDf =  0.00267    CDp =  0.01930

 MRCHDU: Convergence failed at  27  side 1    Res =  0.1480E+01
 MRCHDU: Convergence failed at  48  side 1    Res =  0.7347E+00
 MRCHDU: Convergence failed at  49  side 1    Res =  0.1417E+01
 MRCHDU: Convergence failed at  50  side 1    Res =  0.1035E+01
 MRCHDU: Convergence failed at  51  side 1    Res =  0.9979E+00
 MRCHDU: Convergence failed at  52  side 1    Res =  0.9546E+00
 MRCHDU: Convergence failed at  53  side 1    Res =  0.9094E+00
 MRCHDU: Convergence failed at  54  side 1    Res =  0.8631E+00
 MRCHDU: Convergence failed at  55  side 1    Res =  0.8158E+00
 MRCHDU: Convergence failed at  56  side 1    Res =  0.7676E+00
 MRCHDU: Convergence failed at  57  side 1    Res =  0.7187E+00
 MRCHDU: Convergence failed at  58  side 1    Res =  0.6688E+00
 MRCHDU: Convergence failed at  59  side 1    Res =  0.6178E+00
 MRCHDU: Convergence failed at  60  side 1    Res =  0.5652E+00
 MRCHDU: Convergence failed at  61  side 1    Res =  0.5108E+00
 MRCHDU: Convergence failed at  62  side 1    Res =  0.4535E+00
 MRCHDU: Convergence failed at  63  side 1    Res =  0.3924E+00
 MRCHDU: Convergence failed at  64  side 1    Res =  0.3246E+00
 MRCHDU: Convergence failed at  65  side 1    Res =  0.2441E+00
 MRCHDU: Convergence failed at  66  side 1    Res =  0.1348E+00
 MRCHDU: Convergence failed at  81  side 1    Res =  0.2781E+00
 MRCHDU: Convergence failed at  82  side 1    Res =  0.9789E+00
 Side 1  free  transition at x/c =  0.0447   27
 Side 2 forced transition at x/c =  0.9998   63
 idif Ue xi dudx           1  0.14082658      4.78470325E-03   29.432669    
 Uenew xinew           2  2.41640564E-02  8.20994377E-04

   8   rms: 0.5289E+00   max: 0.2122E+01   D at   65  2   RLX: 0.395
       a =  5.000      CL =  1.5386
      Cm = -0.2473     CD =  0.03955   =>   CDf =  0.00267    CDp =  0.03687

 MRCHDU: Convergence failed at  66  side 1    Res =  0.3116E+00
 MRCHDU: Convergence failed at  67  side 1    Res =  0.6187E+00
 MRCHDU: Convergence failed at  68  side 1    Res =  0.9123E-01
 MRCHDU: Convergence failed at  69  side 1    Res =  0.8641E-03
 MRCHDU: Convergence failed at  70  side 1    Res =  0.7529E+00
 MRCHDU: Convergence failed at  71  side 1    Res =  0.4048E+00
 Side 1  free  transition at x/c =  0.0422   26
 Side 2 forced transition at x/c =  0.9998   64

   9   rms: 0.1527E+01   max: -.9506E+01   D at   69  1   RLX: 0.053
       a =  5.000      CL =  1.3685
      Cm = -0.1744     CD =  0.04730   =>   CDf =  0.00270    CDp =  0.04460

 MRCHDU: Convergence failed at  68  side 1    Res =  0.3466E+00
 MRCHDU: Convergence failed at  69  side 1    Res =  0.5928E+00
 MRCHDU: Convergence failed at  70  side 1    Res =  0.4778E+00
 MRCHDU: Convergence failed at  71  side 1    Res =  0.4645E+00
 Side 1  free  transition at x/c =  0.0446   26
 Side 2 forced transition at x/c =  0.9998   64
 idif Ue xi dudx           1  0.15572615      5.06377220E-03   30.752993    
 Uenew xinew           2  4.61408086E-02  1.50036812E-03

  10   rms: 0.3742E+01   max: 0.9211E+01   D at   68  2   RLX: 0.089
       a =  5.000      CL =  1.2156
      Cm = -0.1678     CD =  0.09792   =>   CDf =  0.00246    CDp =  0.09546
 VISCAL:  Convergence failed
 SINVRT: spline inversion failed. Input value returned.
 Type "!" to continue iterating

.OPERv   c>   SINVRT: spline inversion failed. Input value returned.

 Flap hinge x,y :  0.0000  0.0000
                                           2  2
 Hinge moment/span = 0.385833  x  1/2 rho V  c 
                                           2   
 x-Force     /span = 0.040668  x  1/2 rho V  c 
                                           2   
 y-Force     /span = 0.813507  x  1/2 rho V  c 


.OPERv   c>   SINVRT: spline inversion failed. Input value returned.

 Solving BL system ...

 Side 1  free  transition at x/c =  0.0464   26
 Side 2 forced transition at x/c =  0.9998   65

   1   rms: 0.1508E+01   max: -.3495E+01   D at   27  1   RLX: 0.143
       a =  5.000      CL =  1.0997
      Cm = -0.1002     CD =  0.06525   =>   CDf =  0.00205    CDp =  0.06320

 Side 1  free  transition at x/c =  0.0475   27
 Side 2 forced transition at x/c =  0.9998   64

   2   rms: 0.1860E+01   max: -.8580E+01   D at   64  1   RLX: 0.058
       a =  5.000      CL =  0.9458
      Cm = -0.0525     CD =  0.05251   =>   CDf =  0.00233    CDp =  0.05018

 Side 1  free  transition at x/c =  0.0503   27
 Side 2 forced transition at x/c =  0.9998   64

   3   rms: 0.2609E+02   max: 0.1051E+03   D at   38  1   RLX: 0.007
       a =  5.000      CL =  0.9760
      Cm = -0.0605     CD =  0.06506   =>   CDf =  0.00249    CDp =  0.06257

 Side 1  free  transition at x/c =  0.0447   26
 Side 2 forced transition at x/c =  0.9998   64
 idif Ue xi dudx           1  0.11485316      3.71134281E-03   30.946524    
 Uenew xinew           2  4.57818946E-03  1.47938728E-04

   4   rms: 0.8727E+00   max: 0.3567E+01   D at   31  1   RLX: 0.359
       a =  5.000      CL =  1.0484
      Cm = -0.0927     CD =  0.08466   =>   CDf =  0.00265    CDp =  0.08200

 Side 1  free  transition at x/c =  0.0387   24
 Side 2 forced transition at x/c =  0.9998   65

   5   rms: 0.6955E+00   max: 0.3214E+01   T at    2  2   RLX: 0.282
       a =  5.000      CL =  1.0328
      Cm = -0.0853     CD =  0.04527   =>   CDf =  0.00282    CDp =  0.04245

 Side 1  free  transition at x/c =  0.0365   25
 Side 2 forced transition at x/c =  0.9998   64
 idif Ue xi dudx           1  0.14509888      4.76396084E-03   30.457613    
 Uenew xinew           2  3.65660936E-02  1.20055676E-03

   6   rms: 0.1332E+01   max: 0.4435E+01   D at   58  1   RLX: 0.338
       a =  5.000      CL =  1.0549
      Cm = -0.1010     CD =  0.08423   =>   CDf =  0.00367    CDp =  0.08056

 MRCHDU: Convergence failed at  45  side 1    Res =  0.2945E-03
 MRCHDU: Convergence failed at  47  side 1    Res =  0.7265E-03
 MRCHDU: Convergence failed at  51  side 1    Res =  0.8486E+01
 MRCHDU: Convergence failed at  52  side 1    Res =  0.1938E+02
 MRCHDU: Convergence failed at  54  side 1    Res =  0.5046E+01
 MRCHDU: Convergence failed at  55  side 1    Res =  0.2603E+01
 Side 1  free  transition at x/c =  0.0357   24
 Side 2 forced transition at x/c =  0.9998   65

   7   rms: 0.7882E+00   max: -.2354E+01   D at   27  1   RLX: 0.212
       a =  5.000      CL =  1.0486
      Cm = -0.1126     CD =  0.03231   =>   CDf =  0.00619    CDp =  0.02612

 Side 1  free  transition at x/c =  0.0351   25
 Side 2 forced transition at x/c =  0.9998   64

   8   rms: 0.9570E+00   max: -.4443E+01   D at   28  1   RLX: 0.113
       a =  5.000      CL =  1.0608
      Cm = -0.1177     CD =  0.02401   =>   CDf =  0.00786    CDp =  0.01615

 MRCHDU: Convergence failed at  40  side 1    Res =  0.7386E-01
 Side 1  free  transition at x/c =  0.0355   25
 Side 2 forced transition at x/c =  0.9998   64

   9   rms: 0.1141E+01   max: -.5996E+01   D at   40  1   RLX: 0.083
       a =  5.000      CL =  1.0797
      Cm = -0.1196     CD =  0.02107   =>   CDf =  0.00815    CDp =  0.01292

 MRCHDU: Convergence failed at  40  side 1    Res =  0.1896E+00
 MRCHDU: Convergence failed at  41  side 1    Res =  0.2568E+00
 MRCHDU: Convergence failed at  42  side 1    Res =  0.1800E+00
 MRCHDU: Convergence failed at  43  side 1    Res =  0.1364E+00
 MRCHDU: Convergence failed at  44  side 1    Res =  0.3269E-01
 Side 1  free  transition at x/c =  0.0357   25
 Side 2 forced transition at x/c =  0.9998   64

  10   rms: 0.1223E+01   max: -.6321E+01   D at   44  1   RLX: 0.079
       a =  5.000      CL =  1.0520
      Cm = -0.1185     CD =  0.01953   =>   CDf =  0.00767    CDp =  0.01186

 MRCHDU: Convergence failed at  44  side 1    Res =  0.2603E+00
 MRCHDU: Convergence failed at  45  side 1    Res =  0.2419E+00
 MRCHDU: Convergence failed at  46  side 1    Res =  0.6395E-04
 Side 1  free  transition at x/c =  0.0353   25
 Side 2 forced transition at x/c =  0.9998   64

  11   rms: 0.8829E+00   max: -.4345E+01   D at   46  1   RLX: 0.115
       a =  5.000      CL =  1.0617
      Cm = -0.1165     CD =  0.01954   =>   CDf =  0.00755    CDp =  0.01199

 MRCHDU: Convergence failed at  46  side 1    Res =  0.6791E-01
 Side 1  free  transition at x/c =  0.0345   25
 Side 2 forced transition at x/c =  0.9998   64

  12   rms: 0.4151E+00   max: -.2243E+01   D at   40  1   RLX: 0.223
       a =  5.000      CL =  1.1236
      Cm = -0.1180     CD =  0.02090   =>   CDf =  0.00745    CDp =  0.01345

 Side 1  free  transition at x/c =  0.0332   26
 Side 2 forced transition at x/c =  0.9998   63

  13   rms: 0.2960E+00   max: -.1341E+01   D at   43  1   RLX: 0.373
       a =  5.000      CL =  1.1901
      Cm = -0.1186     CD =  0.02409   =>   CDf =  0.00808    CDp =  0.01601

 Side 1  free  transition at x/c =  0.0318   25
 Side 2 forced transition at x/c =  0.9998   63

  14   rms: 0.1945E+00   max: -.9443E+00   D at   45  1   RLX: 0.530
       a =  5.000      CL =  1.2300
      Cm = -0.1160     CD =  0.02624   =>   CDf =  0.00781    CDp =  0.01843

 Side 1  free  transition at x/c =  0.0315   25
 Side 2 forced transition at x/c =  0.9998   63

  15   rms: 0.1023E+00   max: -.6585E+00   D at   46  1   RLX: 0.759
       a =  5.000      CL =  1.2582
      Cm = -0.1140     CD =  0.02725   =>   CDf =  0.00744    CDp =  0.01982
 VISCAL:  Convergence failed
 SINVRT: spline inversion failed. Input value returned.
 SINVRT: spline inversion failed. Input value returned.
 Calculating wake trajectory ...
 Calculating source influence matrix ...

 Solving BL system ...

 Side 1  free  transition at x/c =  0.0313   25
 Side 2 forced transition at x/c =  0.9998   63

   1   rms: 0.1180E+00   max: 0.7313E+00   T at   25  1
       a =  5.500      CL =  1.3268
      Cm = -0.1129     CD =  0.03024   =>   CDf =  0.00738    CDp =  0.02287

 Side 1  free  transition at x/c =  0.0272   24
 Side 2 forced transition at x/c =  0.9998   63

   2   rms: 0.8257E-01   max: -.4047E+00   D at   26  1
       a =  5.500      CL =  1.3245
      Cm = -0.1133     CD =  0.03072   =>   CDf =  0.00689    CDp =  0.02383

 Side 1  free  transition at x/c =  0.0274   25
 Side 2 forced transition at x/c =  0.9998   63

   3   rms: 0.2606E-01   max: 0.1794E+00   D at   25  1
       a =  5.500      CL =  1.3228
      Cm = -0.1129     CD =  0.03094   =>   CDf =  0.00727    CDp =  0.02366

 Side 1  free  transition at x/c =  0.0273   25
 Side 2 forced transition at x/c =  0.9998   63

   4   rms: 0.3513E-03   max: 0.1440E-02   D at   26  1
       a =  5.500      CL =  1.3225
      Cm = -0.1128     CD =  0.03093   =>   CDf =  0.00724    CDp =  0.02369

 Side 1  free  transition at x/c =  0.0273   25
 Side 2 forced transition at x/c =  0.9998   63

   5   rms: 0.4601E-05   max: -.2224E-04   T at   25  1
       a =  5.500      CL =  1.3225
      Cm = -0.1128     CD =  0.03093   =>   CDf =  0.00724    CDp =  0.02369
 SINVRT: spline inversion failed. Input value returned.
 SINVRT: spline inversion failed. Input value returned.
 Calculating wake trajectory ...
 Calculating source influence matrix ...

 Solving BL system ...

 Side 1  free  transition at x/c =  0.0273   25
 Side 2 forced transition at x/c =  0.9998   63

   1   rms: 0.2005E+00   max: 0.8917E+00   T at   25  1
       a =  6.000      CL =  1.3645
      Cm = -0.1112     CD =  0.04116   =>   CDf =  0.00682    CDp =  0.03433

 MRCHDU: Convergence failed at  26  side 1    Res =  0.1432E+04
 MRCHDU: Convergence failed at  27  side 1    Res =  0.3784E+02
 MRCHDU: Convergence failed at  28  side 1    Res =  0.7013E+02
 MRCHDU: Convergence failed at  29  side 1    Res =  0.4135E+02
 MRCHDU: Convergence failed at  30  side 1    Res =  0.3607E+02
 MRCHDU: Convergence failed at  31  side 1    Res =  0.3620E+02
 MRCHDU: Convergence failed at  32  side 1    Res =  0.6785E+02
 MRCHDU: Convergence failed at  33  side 1    Res =  0.7331E+02
 MRCHDU: Convergence failed at  34  side 1    Res =  0.9723E+02
 MRCHDU: Convergence failed at  35  side 1    Res =  0.4628E+02
 MRCHDU: Convergence failed at  36  side 1    Res =  0.6370E+02
 MRCHDU: Convergence failed at  37  side 1    Res =  0.4464E+02
 MRCHDU: Convergence failed at  38  side 1    Res =  0.4930E+02
 MRCHDU: Convergence failed at  39  side 1    Res =  0.4248E+02
 MRCHDU: Convergence failed at  40  side 1    Res =  0.4776E+02
 MRCHDU: Convergence failed at  41  side 1    Res =  0.5422E+02
 MRCHDU: Convergence failed at  42  side 1    Res =  0.4783E+02
 MRCHDU: Convergence failed at  43  side 1    Res =  0.5311E+02
 MRCHDU: Convergence failed at  44  side 1    Res =  0.5799E+02
 MRCHDU: Convergence failed at  45  side 1    Res =  0.4383E+02
 MRCHDU: Convergence failed at  46  side 1    Res =  0.4696E+02
 MRCHDU: Convergence failed at  47  side 1    Res =  0.5014E+02
 MRCHDU: Convergence failed at  48  side 1    Res =  0.4863E+02
 MRCHDU: Convergence failed at  49  side 1    Res =  0.5305E+02
 MRCHDU: Convergence failed at  50  side 1    Res =  0.5617E+02
 MRCHDU: Convergence failed at  51  side 1    Res =  0.5913E+02
 MRCHDU: Convergence failed at  52  side 1    Res =  0.3877E+02
 MRCHDU: Convergence failed at  53  side 1    Res =  0.4025E+02
 MRCHDU: Convergence failed at  54  side 1    Res =  0.4157E+02
 MRCHDU: Convergence failed at  55  side 1    Res =  0.4288E+02
 MRCHDU: Convergence failed at  56  side 1    Res =  0.4415E+02
 MRCHDU: Convergence failed at  57  side 1    Res =  0.4524E+02
 MRCHDU: Convergence failed at  58  side 1    Res =  0.4631E+02
 MRCHDU: Convergence failed at  59  side 1    Res =  0.4722E+02
 MRCHDU: Convergence failed at  60  side 1    Res =  0.4792E+02
 MRCHDU: Convergence failed at  61  side 1    Res =  0.4857E+02
 MRCHDU: Convergence failed at  62  side 1    Res =  0.4886E+02
 MRCHDU: Convergence failed at  63  side 1    Res =  0.4903E+02
 MRCHDU: Convergence failed at  64  side 1    Res =  0.4885E+02
 MRCHDU: Convergence failed at  65  side 1    Res =  0.4828E+02
 MRCHDU: Convergence failed at  66  side 1    Res =  0.4732E+02
 MRCHDU: Convergence failed at  67  side 1    Res =  0.4567E+02
 MRCHDU: Convergence failed at  68  side 1    Res =  0.4331E+02
 MRCHDU: Convergence failed at  69  side 1    Res =  0.4636E+02
 MRCHDU: Convergence failed at  70  side 1    Res =  0.3762E+02
 MRCHDU: Convergence failed at  71  side 1    Res =  0.3304E+04
 MRCHDU: Convergence failed at  72  side 1    Res =  0.5275E+02
 MRCHDU: Convergence failed at  73  side 1    Res =  0.8461E+03
 MRCHDU: Convergence failed at  74  side 1    Res =  0.4449E+03
 MRCHDU: Convergence failed at  75  side 1    Res =  0.1782E+04
 MRCHDU: Convergence failed at  76  side 1    Res =  0.3167E+03
 MRCHDU: Convergence failed at  77  side 1    Res =  0.1329E+04
 MRCHDU: Convergence failed at  78  side 1    Res =  0.4651E+03
 MRCHDU: Convergence failed at  79  side 1    Res =  0.2846E+03
 MRCHDU: Convergence failed at  80  side 1    Res =  0.2063E+03
 MRCHDU: Convergence failed at  81  side 1    Res =  0.1619E+03
 MRCHDU: Convergence failed at  82  side 1    Res =  0.1354E+03
 MRCHDU: Convergence failed at  83  side 1    Res =  0.1088E+03
 Side 1  free  transition at x/c =  0.0253   25
 Side 2 forced transition at x/c =  0.9998   62

   2   rms: 0.3050E+01   max: 0.1947E+02   D at   64  2   RLX: 0.034
       a =  6.000      CL =  4.9372
      Cm = -1.2057     CD =  0.00445   =>   CDf =  0.00110    CDp =  0.00336

 Side 1  free  transition at x/c =  0.0248   25
 Side 2 forced transition at x/c =  0.9998   62
 idif Ue xi dudx           1  0.11387540      4.84454632E-03   23.505896    
 Uenew xinew           2  9.38710570E-03  3.99351120E-04

   3   rms: 0.9567E+00   max: 0.1657E+01   D at   72  2   RLX: 0.135
       a =  6.000      CL =  3.0635
      Cm = -0.6387     CD =  0.08123   =>   CDf =  0.00217    CDp =  0.07906

 Side 1  free  transition at x/c =  0.0259   24
 Side 2 forced transition at x/c =  0.9998   63

   4   rms: 0.8569E+00   max: -.2733E+01   D at    2  2   RLX: 0.183
       a =  6.000      CL =  2.6387
      Cm = -0.5353     CD =  0.09122   =>   CDf =  0.00196    CDp =  0.08925

 Side 1  free  transition at x/c =  0.0271   24
 Side 2 forced transition at x/c =  0.9998   63

   5   rms: 0.8349E+00   max: -.2298E+01   D at   24  1   RLX: 0.218
       a =  6.000      CL =  2.1632
      Cm = -0.4047     CD =  0.09296   =>   CDf =  0.00212    CDp =  0.09084

 MRCHDU: Convergence failed at  26  side 1    Res =  0.1815E+01
 MRCHDU: Convergence failed at  27  side 1    Res =  0.1164E+02
 MRCHDU: Convergence failed at  28  side 1    Res =  0.1150E+02
 MRCHDU: Convergence failed at  29  side 1    Res =  0.6620E+01
 MRCHDU: Convergence failed at  30  side 1    Res =  0.9810E+01
 MRCHDU: Convergence failed at  31  side 1    Res =  0.1861E+02
 MRCHDU: Convergence failed at  32  side 1    Res =  0.7979E+02
 MRCHDU: Convergence failed at  33  side 1    Res =  0.3726E+02
 MRCHDU: Convergence failed at  34  side 1    Res =  0.1385E+02
 MRCHDU: Convergence failed at  35  side 1    Res =  0.8121E+01
 MRCHDU: Convergence failed at  36  side 1    Res =  0.1192E+02
 MRCHDU: Convergence failed at  37  side 1    Res =  0.1760E+02
 MRCHDU: Convergence failed at  38  side 1    Res =  0.3027E+02
 MRCHDU: Convergence failed at  39  side 1    Res =  0.8330E+02
 MRCHDU: Convergence failed at  40  side 1    Res =  0.1310E+03
 MRCHDU: Convergence failed at  41  side 1    Res =  0.4156E+02
 MRCHDU: Convergence failed at  42  side 1    Res =  0.2495E+02
 MRCHDU: Convergence failed at  43  side 1    Res =  0.1873E+02
 MRCHDU: Convergence failed at  44  side 1    Res =  0.1508E+02
 MRCHDU: Convergence failed at  45  side 1    Res =  0.1286E+02
 MRCHDU: Convergence failed at  46  side 1    Res =  0.1126E+02
 MRCHDU: Convergence failed at  47  side 1    Res =  0.6993E+01
 MRCHDU: Convergence failed at  48  side 1    Res =  0.7734E+01
 MRCHDU: Convergence failed at  49  side 1    Res =  0.8047E+01
 MRCHDU: Convergence failed at  50  side 1    Res =  0.8350E+01
 MRCHDU: Convergence failed at  51  side 1    Res =  0.9177E+01
 MRCHDU: Convergence failed at  52  side 1    Res =  0.1003E+02
 MRCHDU: Convergence failed at  53  side 1    Res =  0.1093E+02
 MRCHDU: Convergence failed at  54  side 1    Res =  0.1090E+02
 MRCHDU: Convergence failed at  55  side 1    Res =  0.1181E+02
 MRCHDU: Convergence failed at  56  side 1    Res =  0.1266E+02
 MRCHDU: Convergence failed at  57  side 1    Res =  0.1218E+02
 MRCHDU: Convergence failed at  58  side 1    Res =  0.1282E+02
 MRCHDU: Convergence failed at  59  side 1    Res =  0.1321E+02
 MRCHDU: Convergence failed at  60  side 1    Res =  0.1337E+02
 MRCHDU: Convergence failed at  61  side 1    Res =  0.1341E+02
 MRCHDU: Convergence failed at  62  side 1    Res =  0.1336E+02
 MRCHDU: Convergence failed at  63  side 1    Res =  0.1321E+02
 MRCHDU: Convergence failed at  64  side 1    Res =  0.1291E+02
 MRCHDU: Convergence failed at  65  side 1    Res =  0.1249E+02
 MRCHDU: Convergence failed at  66  side 1    Res =  0.1181E+02
 MRCHDU: Convergence failed at  67  side 1    Res =  0.1152E+02
 MRCHDU: Convergence failed at  68  side 1    Res =  0.1101E+02
 MRCHDU: Convergence failed at  69  side 1    Res =  0.1195E+02
 MRCHDU: Convergence failed at  70  side 1    Res =  0.1196E+02
 MRCHDU: Convergence failed at  71  side 1    Res =  0.1033E+02
 MRCHDU: Convergence failed at  72  side 1    Res =  0.1064E+02
 MRCHDU: Convergence failed at  73  side 1    Res =  0.1023E+02
 MRCHDU: Convergence failed at  74  side 1    Res =  0.1074E+02
 MRCHDU: Convergence failed at  75  side 1    Res =  0.9526E+01
 MRCHDU: Convergence failed at  76  side 1    Res =  0.8147E+01
 MRCHDU: Convergence failed at  77  side 1    Res =  0.6137E+01
 MRCHDU: Convergence failed at  78  side 1    Res =  0.6463E+01
 MRCHDU: Convergence failed at  79  side 1    Res =  0.9608E+01
 MRCHDU: Convergence failed at  80  side 1    Res =  0.6313E+01
 MRCHDU: Convergence failed at  81  side 1    Res =  0.1365E+02
 MRCHDU: Convergence failed at  82  side 1    Res =  0.2675E+02
 MRCHDU: Convergence failed at  72  side 2    Res =  0.1930E+02
 Side 1  free  transition at x/c =  0.0350   26
 Side 2 forced transition at x/c =  0.9998   63

   6   rms: 0.2233E+01   max: 0.6462E+01   D at   65  2   RLX: 0.232
       a =  6.000      CL =  3.5746
      Cm = -0.8178     CD =  0.00896   =>   CDf =  0.00139    CDp =  0.00758

 MRCHDU: Convergence failed at  29  side 1    Res =  0.3800E-01
 MRCHDU: Convergence failed at  41  side 1    Res =  0.2667E+00
 MRCHDU: Convergence failed at  42  side 1    Res =  0.2367E+00
 MRCHDU: Convergence failed at  43  side 1    Res =  0.2047E+00
 MRCHDU: Convergence failed at  44  side 1    Res =  0.1624E+00
 MRCHDU: Convergence failed at  45  side 1    Res =  0.1045E-01
 MRCHDU: Convergence failed at  70  side 2    Res =  0.2958E+01
 MRCHDU: Convergence failed at  71  side 2    Res =  0.2434E+01
 Side 1  free  transition at x/c =  0.0320   25
 Side 2 forced transition at x/c =  0.9998   63

   7   rms: 0.7729E+00   max: -.8309E+00   U at   82  1   RLX: 0.212
       a =  6.000      CL =  2.5149
      Cm = -0.5179     CD =  0.05270   =>   CDf =  0.00475    CDp =  0.04795

 MRCHDU: Convergence failed at  45  side 1    Res =  0.1950E+00
 MRCHDU: Convergence failed at  46  side 1    Res =  0.5911E+00
 MRCHDU: Convergence failed at  70  side 1    Res =  0.6349E+00
 MRCHDU: Convergence failed at  71  side 1    Res =  0.9685E+00
 MRCHDU: Convergence failed at  72  side 1    Res =  0.4580E+00
 MRCHDU: Convergence failed at  73  side 1    Res =  0.4331E+00
 MRCHDU: Convergence failed at  74  side 1    Res =  0.4045E+00
 MRCHDU: Convergence failed at  75  side 1    Res =  0.3777E+00
 MRCHDU: Convergence failed at  76  side 1    Res =  0.3523E+00
 MRCHDU: Convergence failed at  77  side 1    Res =  0.3277E+00
 MRCHDU: Convergence failed at  78  side 1    Res =  0.3038E+00
 MRCHDU: Convergence failed at  79  side 1    Res =  0.2803E+00
 MRCHDU: Convergence failed at  80  side 1    Res =  0.2570E+00
 MRCHDU: Convergence failed at  81  side 1    Res =  0.2354E+00
 MRCHDU: Convergence failed at  82  side 1    Res =  0.2135E+00
 Side 1  free  transition at x/c =  0.0309   25
 Side 2 forced transition at x/c =  0.9998   63

   8   rms: 0.5637E+00   max: 0.7619E+00   C at   63  2   RLX: 0.379
       a =  6.000      CL =  1.7117
      Cm = -0.2116     CD =  0.06066   =>   CDf =  0.00297    CDp =  0.05769

 Side 1  free  transition at x/c =  0.0299   25
 Side 2 forced transition at x/c =  0.9998   63

   9   rms: 0.3174E+01   max: -.7464E+01   D at   40  1   RLX: 0.067
       a =  6.000      CL =  1.6414
      Cm = -0.1388     CD =  0.05703   =>   CDf =  0.00238    CDp =  0.05465

 Side 1  free  transition at x/c =  0.0267   25
 Side 2 forced transition at x/c =  0.9998   62
 idif Ue xi dudx           1  0.11726200      4.62830067E-03   25.335865    
 Uenew xinew           2  4.63913567E-03  1.83105469E-04

  10   rms: 0.3242E+01   max: 0.1019E+02   D at   47  1   RLX: 0.054
       a =  6.000      CL =  1.5557
      Cm = -0.1532     CD =  0.08077   =>   CDf =  0.00378    CDp =  0.07699

 Side 1  free  transition at x/c =  0.0305   25
 Side 2 forced transition at x/c =  0.9998   63

  11   rms: 0.3896E+01   max: 0.1712E+02   D at    2  2   RLX: 0.043
       a =  6.000      CL =  1.4852
      Cm = -0.0907     CD =  0.05543   =>   CDf =  0.00259    CDp =  0.05284

 Side 1  free  transition at x/c =  0.0279   26
 Side 2 forced transition at x/c =  0.9998   62
 idif Ue xi dudx           1  0.16126816      6.42037392E-03   25.118189    
 Uenew xinew           2  4.96129133E-02  1.97517872E-03

  12   rms: 0.1134E+02   max: 0.3547E+02   D at   47  1   RLX: 0.028
       a =  6.000      CL =  1.4027
      Cm = -0.1239     CD =  0.09418   =>   CDf =  0.00400    CDp =  0.09017

 MRCHDU: Convergence failed at  26  side 1    Res =  0.4637E+01
 MRCHDU: Convergence failed at  27  side 1    Res =  0.1680E+02
 MRCHDU: Convergence failed at  28  side 1    Res =  0.5389E+01
 MRCHDU: Convergence failed at  29  side 1    Res =  0.1979E+03
 MRCHDU: Convergence failed at  30  side 1    Res =  0.3405E+02
 MRCHDU: Convergence failed at  40  side 1    Res =  0.9411E+00
 MRCHDU: Convergence failed at  41  side 1    Res =  0.1444E+01
 MRCHDU: Convergence failed at  42  side 1    Res =  0.1621E+01
 MRCHDU: Convergence failed at  43  side 1    Res =  0.1655E+01
 MRCHDU: Convergence failed at  44  side 1    Res =  0.1925E+01
 MRCHDU: Convergence failed at  45  side 1    Res =  0.2295E+01
 MRCHDU: Convergence failed at  46  side 1    Res =  0.2758E+01
 MRCHDU: Convergence failed at  47  side 1    Res =  0.2601E+01
 MRCHDU: Convergence failed at  48  side 1    Res =  0.2608E+01
 MRCHDU: Convergence failed at  49  side 1    Res =  0.2611E+01
 MRCHDU: Convergence failed at  50  side 1    Res =  0.2638E+01
 MRCHDU: Convergence failed at  51  side 1    Res =  0.2668E+01
 MRCHDU: Convergence failed at  52  side 1    Res =  0.2680E+01
 MRCHDU: Convergence failed at  53  side 1    Res =  0.2680E+01
 MRCHDU: Convergence failed at  54  side 1    Res =  0.2613E+01
 MRCHDU: Convergence failed at  55  side 1    Res =  0.2601E+01
 MRCHDU: Convergence failed at  56  side 1    Res =  0.2587E+01
 MRCHDU: Convergence failed at  57  side 1    Res =  0.2626E+01
 MRCHDU: Convergence failed at  58  side 1    Res =  0.2781E+01
 MRCHDU: Convergence failed at  59  side 1    Res =  0.2940E+01
 MRCHDU: Convergence failed at  60  side 1    Res =  0.3101E+01
 MRCHDU: Convergence failed at  61  side 1    Res =  0.3288E+01
 MRCHDU: Convergence failed at  62  side 1    Res =  0.3490E+01
 MRCHDU: Convergence failed at  63  side 1    Res =  0.3744E+01
 MRCHDU: Convergence failed at  64  side 1    Res =  0.3920E+01
 MRCHDU: Convergence failed at  65  side 1    Res =  0.4076E+01
 MRCHDU: Convergence failed at  66  side 1    Res =  0.4331E+01
 MRCHDU: Convergence failed at  67  side 1    Res =  0.4951E+01
 MRCHDU: Convergence failed at  68  side 1    Res =  0.5662E+01
 MRCHDU: Convergence failed at  69  side 1    Res =  0.3911E+01
 MRCHDU: Convergence failed at  70  side 1    Res =  0.4349E+01
 MRCHDU: Convergence failed at  71  side 1    Res =  0.4316E+01
 MRCHDU: Convergence failed at  72  side 1    Res =  0.4802E+01
 MRCHDU: Convergence failed at  73  side 1    Res =  0.5205E+01
 MRCHDU: Convergence failed at  74  side 1    Res =  0.5664E+01
 MRCHDU: Convergence failed at  75  side 1    Res =  0.6291E+01
 MRCHDU: Convergence failed at  76  side 1    Res =  0.6890E+01
 MRCHDU: Convergence failed at  77  side 1    Res =  0.8027E+01
 MRCHDU: Convergence failed at  78  side 1    Res =  0.8975E+01
 MRCHDU: Convergence failed at  79  side 1    Res =  0.1012E+02
 MRCHDU: Convergence failed at  80  side 1    Res =  0.1150E+02
 MRCHDU: Convergence failed at  81  side 1    Res =  0.1324E+02
 MRCHDU: Convergence failed at  82  side 1    Res =  0.1554E+02
 Side 1  free  transition at x/c =  0.0377   26
 Side 2 forced transition at x/c =  0.9998   63
 idif Ue xi dudx           1  0.17363217      6.73091412E-03   25.796225    
 Uenew xinew           2  7.13834465E-02  2.76720524E-03

  13   rms: 0.2440E+01   max: 0.7410E+01   D at   37  1   RLX: 0.200
       a =  6.000      CL =  1.9159
      Cm = -0.3418     CD =  0.06305   =>   CDf =  0.00271    CDp =  0.06034

 MRCHDU: Convergence failed at  34  side 1    Res =  0.1618E+00
 MRCHDU: Convergence failed at  35  side 1    Res =  0.1684E+00
 MRCHDU: Convergence failed at  71  side 2    Res =  0.2744E+01
 MRCHDU: Convergence failed at  72  side 2    Res =  0.1863E+01
 Side 1  free  transition at x/c =  0.0421   26
 Side 2 forced transition at x/c =  0.9998   64

  14   rms: 0.6495E+00   max: 0.2972E+01   T at   26  1   RLX: 0.404
       a =  6.000      CL =  1.6503
      Cm = -0.2573     CD =  0.02710   =>   CDf =  0.00675    CDp =  0.02036

 MRCHDU: Convergence failed at  27  side 1    Res =  0.5526E+01
 MRCHDU: Convergence failed at  28  side 1    Res =  0.1667E+03
 MRCHDU: Convergence failed at  29  side 1    Res =  0.1398E+02
 MRCHDU: Convergence failed at  30  side 1    Res =  0.2959E+02
 MRCHDU: Convergence failed at  31  side 1    Res =  0.1357E+02
 MRCHDU: Convergence failed at  32  side 1    Res =  0.1911E+02
 MRCHDU: Convergence failed at  33  side 1    Res =  0.1609E+02
 MRCHDU: Convergence failed at  34  side 1    Res =  0.1610E+03
 MRCHDU: Convergence failed at  35  side 1    Res =  0.4980E+03
 MRCHDU: Convergence failed at  36  side 1    Res =  0.1242E+03
 MRCHDU: Convergence failed at  37  side 1    Res =  0.2464E+02
 MRCHDU: Convergence failed at  38  side 1    Res =  0.3469E+02
 MRCHDU: Convergence failed at  39  side 1    Res =  0.3506E+02
 MRCHDU: Convergence failed at  40  side 1    Res =  0.2251E+02
 MRCHDU: Convergence failed at  41  side 1    Res =  0.2076E+02
 MRCHDU: Convergence failed at  42  side 1    Res =  0.4390E+02
 MRCHDU: Convergence failed at  43  side 1    Res =  0.2510E+04
 MRCHDU: Convergence failed at  44  side 1    Res =  0.2962E+02
 MRCHDU: Convergence failed at  45  side 1    Res =  0.3662E+02
 MRCHDU: Convergence failed at  46  side 1    Res =  0.4094E+02
 MRCHDU: Convergence failed at  47  side 1    Res =  0.3448E+02
 MRCHDU: Convergence failed at  48  side 1    Res =  0.3937E+02
 MRCHDU: Convergence failed at  49  side 1    Res =  0.6683E+02
 MRCHDU: Convergence failed at  50  side 1    Res =  0.7089E+02
 MRCHDU: Convergence failed at  51  side 1    Res =  0.6394E+02
 MRCHDU: Convergence failed at  52  side 1    Res =  0.2221E+02
 MRCHDU: Convergence failed at  53  side 1    Res =  0.4336E+02
 MRCHDU: Convergence failed at  54  side 1    Res =  0.1008E+03
 MRCHDU: Convergence failed at  55  side 1    Res =  0.4580E+02
 MRCHDU: Convergence failed at  56  side 1    Res =  0.3177E+02
 MRCHDU: Convergence failed at  57  side 1    Res =  0.1815E+02
 MRCHDU: Convergence failed at  58  side 1    Res =  0.2053E+02
 MRCHDU: Convergence failed at  59  side 1    Res =  0.3284E+02
 MRCHDU: Convergence failed at  60  side 1    Res =  0.4828E+02
 MRCHDU: Convergence failed at  61  side 1    Res =  0.4388E+02
 MRCHDU: Convergence failed at  62  side 1    Res =  0.3651E+02
 MRCHDU: Convergence failed at  63  side 1    Res =  0.3527E+02
 MRCHDU: Convergence failed at  64  side 1    Res =  0.6352E+02
 MRCHDU: Convergence failed at  65  side 1    Res =  0.1090E+03
 MRCHDU: Convergence failed at  66  side 1    Res =  0.2006E+03
 MRCHDU: Convergence failed at  67  side 1    Res =  0.5360E+02
 MRCHDU: Convergence failed at  68  side 1    Res =  0.3043E+02
 MRCHDU: Convergence failed at  69  side 1    Res =  0.5304E+02
 MRCHDU: Convergence failed at  70  side 1    Res =  0.3009E+02
 MRCHDU: Convergence failed at  71  side 1    Res =  0.3541E+02
 MRCHDU: Convergence failed at  72  side 1    Res =  0.5362E+02
 MRCHDU: Convergence failed at  73  side 1    Res =  0.4570E+02
 MRCHDU: Convergence failed at  74  side 1    Res =  0.4066E+02
 MRCHDU: Convergence failed at  75  side 1    Res =  0.3772E+02
 MRCHDU: Convergence failed at  76  side 1    Res =  0.3547E+02
 MRCHDU: Convergence failed at  77  side 1    Res =  0.3380E+02
 MRCHDU: Convergence failed at  78  side 1    Res =  0.3222E+02
 MRCHDU: Convergence failed at  79  side 1    Res =  0.2051E+02
 MRCHDU: Convergence failed at  80  side 1    Res =  0.2206E+02
 MRCHDU: Convergence failed at  81  side 1    Res =  0.2376E+02
 MRCHDU: Convergence failed at  82  side 1    Res =  0.2590E+02
 Side 1  free  transition at x/c =  0.0327   26
 Side 2 forced transition at x/c =  0.9998   63

  15   rms: 0.1675E+01   max: 0.9648E+01   D at   65  2   RLX: 0.067
       a =  6.000      CL =  3.5248
      Cm = -0.8311     CD =  0.00836   =>   CDf =  0.00181    CDp =  0.00655
 VISCAL:  Convergence failed
 SINVRT: spline inversion failed. Input value returned.
 SINVRT: spline inversion failed. Input value returned.
 Calculating wake trajectory ...
 Calculating source influence matrix ...

 Solving BL system ...

 MRCHDU: Convergence failed at  34  side 1    Res =  0.3001E+00
 MRCHDU: Convergence failed at  35  side 1    Res =  0.2676E+00
 MRCHDU: Convergence failed at  36  side 1    Res =  0.1788E+00
 MRCHDU: Convergence failed at  38  side 1    Res =  0.3988E+00
 MRCHDU: Convergence failed at  39  side 1    Res =  0.3721E+00
 MRCHDU: Convergence failed at  40  side 1    Res =  0.3394E+00
 MRCHDU: Convergence failed at  41  side 1    Res =  0.2958E+00
 MRCHDU: Convergence failed at  42  side 1    Res =  0.2286E+00
 MRCHDU: Convergence failed at  43  side 1    Res =  0.1198E+00
 MRCHDU: Convergence failed at  75  side 1    Res =  0.2672E+00
 MRCHDU: Convergence failed at  76  side 1    Res =  0.2660E+00
 MRCHDU: Convergence failed at  77  side 1    Res =  0.2678E+00
 MRCHDU: Convergence failed at  78  side 1    Res =  0.2714E+00
 MRCHDU: Convergence failed at  79  side 1    Res =  0.2755E+00
 MRCHDU: Convergence failed at  80  side 1    Res =  0.2785E+00
 MRCHDU: Convergence failed at  81  side 1    Res =  0.2833E+00
 MRCHDU: Convergence failed at  82  side 1    Res =  0.2679E+00
 Side 1  free  transition at x/c =  0.0318   25
 Side 2 forced transition at x/c =  0.9998   63

   1   rms: 0.7564E+00   max: -.2661E+01   T at   25  1   RLX: 0.188
       a =  6.500      CL =  2.3563
      Cm = -0.4831     CD =  0.05852   =>   CDf =  0.00244    CDp =  0.05608

 MRCHDU: Convergence failed at  44  side 1    Res =  0.1262E+00
 MRCHDU: Convergence failed at  45  side 1    Res =  0.1113E+01
 MRCHDU: Convergence failed at  46  side 1    Res =  0.7159E+00
 MRCHDU: Convergence failed at  47  side 1    Res =  0.6625E+00
 MRCHDU: Convergence failed at  48  side 1    Res =  0.5990E+00
 MRCHDU: Convergence failed at  49  side 1    Res =  0.5298E+00
 MRCHDU: Convergence failed at  50  side 1    Res =  0.4529E+00
 MRCHDU: Convergence failed at  51  side 1    Res =  0.3643E+00
 MRCHDU: Convergence failed at  52  side 1    Res =  0.2485E+00
 MRCHDU: Convergence failed at  53  side 1    Res =  0.8373E-02
 MRCHDU: Convergence failed at  54  side 1    Res =  0.6251E-04
 Side 1  free  transition at x/c =  0.0379   26
 Side 2 forced transition at x/c =  0.9998   63

   2   rms: 0.5133E+00   max: -.5268E+00   D at   64  2   RLX: 0.386
       a =  6.500      CL =  1.6942
      Cm = -0.2662     CD =  0.05576   =>   CDf =  0.00283    CDp =  0.05293

 MRCHDU: Convergence failed at  53  side 1    Res =  0.4280E+00
 MRCHDU: Convergence failed at  54  side 1    Res =  0.7193E+00
 MRCHDU: Convergence failed at  55  side 1    Res =  0.2056E+00
 MRCHDU: Convergence failed at  56  side 1    Res =  0.1753E+00
 MRCHDU: Convergence failed at  57  side 1    Res =  0.1397E+00
 MRCHDU: Convergence failed at  58  side 1    Res =  0.1031E+00
 MRCHDU: Convergence failed at  59  side 1    Res =  0.6542E-01
 Side 1  free  transition at x/c =  0.0349   26
 Side 2 forced transition at x/c =  0.9998   63

   3   rms: 0.1941E+01   max: -.1306E+02   D at   59  1   RLX: 0.038
       a =  6.500      CL =  1.4361
      Cm = -0.1871     CD =  0.06076   =>   CDf =  0.00272    CDp =  0.05804

 MRCHDU: Convergence failed at  59  side 1    Res =  0.4637E+00
 MRCHDU: Convergence failed at  60  side 1    Res =  0.6572E+00
 Side 1  free  transition at x/c =  0.0371   26
 Side 2 forced transition at x/c =  0.9998   63
 idif Ue xi dudx           1  0.16501765      5.84137440E-03   28.249798    
 Uenew xinew           2  5.30436710E-02  1.87766552E-03

   4   rms: 0.1964E+01   max: 0.5358E+01   D at   32  1   RLX: 0.159
       a =  6.500      CL =  1.1337
      Cm = -0.1244     CD =  0.11589   =>   CDf =  0.00275    CDp =  0.11314

 Side 1  free  transition at x/c =  0.0439   26
 Side 2 forced transition at x/c =  0.9998   64
 idif Ue xi dudx           2  0.20588878      6.80422783E-03   30.258947    
 Uenew xinew           3  9.80639160E-02  3.24082375E-03

   5   rms: 0.1502E+01   max: 0.6183E+01   D at   27  1   RLX: 0.203
       a =  6.500      CL =  0.8705
      Cm = -0.0943     CD =  0.13764   =>   CDf =  0.00304    CDp =  0.13460

 Side 1  free  transition at x/c =  0.0473   25
 Side 2 forced transition at x/c =  0.9998   66

   6   rms: 0.8851E+03   max: 0.1474E+05   D at    2  2   RLX: 0.000
       a =  6.500      CL =  0.7306
      Cm = -0.0551     CD =  0.12566   =>   CDf =  0.00233    CDp =  0.12333

 Side 1  free  transition at x/c =  0.0472   26
 Side 2 forced transition at x/c =  0.9998   65

   7   rms: 0.7914E+05   max: -.1260E+07   T at    2  1   RLX: 0.000
       a =  6.500      CL =  0.7301
      Cm = -0.0551     CD =  0.12602   =>   CDf =  0.00257    CDp =  0.12345

 Side 1  free  transition at x/c =  0.0472   26
 Side 2 forced transition at x/c =  0.9998   65

   8   rms: 0.1774E+03   max: -.5767E+03   D at   26  1   RLX: 0.000
       a =  6.500      CL =  0.7510
      Cm = -0.0514     CD =  0.11792   =>   CDf =  0.00257    CDp =  0.11535

 Side 1  free  transition at x/c =  0.0468   26
 Side 2 forced transition at x/c =  0.9998   65
 idif Ue xi dudx           2  0.22321475      6.63316250E-03   33.651329    
 Uenew xinew           3  0.11450572      3.40270996E-03

   9   rms: 0.4945E+01   max: 0.1859E+02   D at   26  1   RLX: 0.060
       a =  6.500      CL =  0.6495
      Cm = -0.0684     CD =  0.16081   =>   CDf =  0.00301    CDp =  0.15780

 Side 1  free  transition at x/c =  0.0524   24
 Side 2 forced transition at x/c =  0.9998   67

  10   rms: 0.8487E+00   max: 0.6205E+01   D at    2  2   RLX: 0.144
       a =  6.500      CL =  0.5711
      Cm = -0.0294     CD =  0.12502   =>   CDf =  0.00245    CDp =  0.12256

 Side 1  free  transition at x/c =  0.0477   25
 Side 2 forced transition at x/c =  0.9998   66

  11   rms: 0.4203E+01   max: -.1317E+02   D at   25  1   RLX: 0.038
       a =  6.500      CL =  0.6354
      Cm = -0.0239     CD =  0.10881   =>   CDf =  0.00238    CDp =  0.10643

 MRCHDU: Convergence failed at  26  side 1    Res =  0.1774E+02
 MRCHDU: Convergence failed at  27  side 1    Res =  0.2013E+02
 MRCHDU: Convergence failed at  28  side 1    Res =  0.3738E+02
 MRCHDU: Convergence failed at  29  side 1    Res =  0.2399E+02
 MRCHDU: Convergence failed at  30  side 1    Res =  0.2133E+02
 MRCHDU: Convergence failed at  31  side 1    Res =  0.1048E+02
 MRCHDU: Convergence failed at  32  side 1    Res =  0.1230E+02
 MRCHDU: Convergence failed at  33  side 1    Res =  0.1618E+02
 MRCHDU: Convergence failed at  34  side 1    Res =  0.2263E+02
 MRCHDU: Convergence failed at  35  side 1    Res =  0.6100E+02
 MRCHDU: Convergence failed at  36  side 1    Res =  0.5796E+03
 MRCHDU: Convergence failed at  37  side 1    Res =  0.4535E+02
 MRCHDU: Convergence failed at  38  side 1    Res =  0.2491E+02
 MRCHDU: Convergence failed at  39  side 1    Res =  0.4125E+02
 MRCHDU: Convergence failed at  40  side 1    Res =  0.7212E+02
 MRCHDU: Convergence failed at  41  side 1    Res =  0.1482E+03
 MRCHDU: Convergence failed at  42  side 1    Res =  0.8544E+04
 MRCHDU: Convergence failed at  43  side 1    Res =  0.5279E+03
 MRCHDU: Convergence failed at  44  side 1    Res =  0.5064E+03
 MRCHDU: Convergence failed at  45  side 1    Res =  0.6949E+02
 MRCHDU: Convergence failed at  46  side 1    Res =  0.3903E+03
 MRCHDU: Convergence failed at  47  side 1    Res =  0.5023E+03
 MRCHDU: Convergence failed at  48  side 1    Res =  0.5028E+03
 MRCHDU: Convergence failed at  49  side 1    Res =  0.9381E+03
 MRCHDU: Convergence failed at  50  side 1    Res =  0.2136E+04
 MRCHDU: Convergence failed at  51  side 1    Res =  0.7098E+03
 MRCHDU: Convergence failed at  52  side 1    Res =  0.3442E+03
 MRCHDU: Convergence failed at  53  side 1    Res =  0.8617E+03
 MRCHDU: Convergence failed at  54  side 1    Res =  0.6522E+03
 MRCHDU: Convergence failed at  55  side 1    Res =  0.4244E+02
 MRCHDU: Convergence failed at  56  side 1    Res =  0.4234E+02
 MRCHDU: Convergence failed at  57  side 1    Res =  0.4248E+02
 MRCHDU: Convergence failed at  58  side 1    Res =  0.4264E+02
 MRCHDU: Convergence failed at  59  side 1    Res =  0.3615E+02
 MRCHDU: Convergence failed at  60  side 1    Res =  0.3370E+02
 MRCHDU: Convergence failed at  61  side 1    Res =  0.3436E+02
 MRCHDU: Convergence failed at  62  side 1    Res =  0.3494E+02
 MRCHDU: Convergence failed at  63  side 1    Res =  0.3552E+02
 MRCHDU: Convergence failed at  64  side 1    Res =  0.3615E+02
 MRCHDU: Convergence failed at  65  side 1    Res =  0.3679E+02
 MRCHDU: Convergence failed at  66  side 1    Res =  0.3758E+02
 MRCHDU: Convergence failed at  67  side 1    Res =  0.4061E+02
 MRCHDU: Convergence failed at  68  side 1    Res =  0.5229E+02
 MRCHDU: Convergence failed at  69  side 1    Res =  0.3433E+02
 MRCHDU: Convergence failed at  70  side 1    Res =  0.1566E+04
 MRCHDU: Convergence failed at  71  side 1    Res =  0.6331E+02
 MRCHDU: Convergence failed at  72  side 1    Res =  0.3493E+02
 MRCHDU: Convergence failed at  73  side 1    Res =  0.2924E+02
 MRCHDU: Convergence failed at  74  side 1    Res =  0.3724E+03
 MRCHDU: Convergence failed at  75  side 1    Res =  0.4701E+03
 MRCHDU: Convergence failed at  76  side 1    Res =  0.5220E+03
 MRCHDU: Convergence failed at  77  side 1    Res =  0.4773E+03
 MRCHDU: Convergence failed at  78  side 1    Res =  0.3561E+03
 MRCHDU: Convergence failed at  79  side 1    Res =  0.2615E+03
 MRCHDU: Convergence failed at  80  side 1    Res =  0.5869E+02
 MRCHDU: Convergence failed at  72  side 2    Res =  0.1802E+02
 MRCHDU: Convergence failed at  73  side 2    Res =  0.5234E+01
[...]
 MRCHDU: Convergence failed at  76  side 1    Res =  0.1820E+02
 MRCHDU: Convergence failed at  77  side 1    Res =  0.2431E+02
 MRCHDU: Convergence failed at  78  side 1    Res =  0.2950E+02
 MRCHDU: Convergence failed at  79  side 1    Res =  0.5429E+02
 MRCHDU: Convergence failed at  80  side 1    Res =  0.2893E+03
 MRCHDU: Convergence failed at  81  side 1    Res =  0.1969E+03
 MRCHDU: Convergence failed at  81  side 2    Res =  0.2804E+01
 Side 1  free  transition at x/c =  0.0360   25
 Side 2 forced transition at x/c =  0.9998   64

  15   rms: 0.3473E+01   max: 0.1242E+02   D at   81  1   RLX: 0.121
       a = 10.000      CL =  2.4956
      Cm = -0.5774     CD =  0.03692   =>   CDf =  0.00188    CDp =  0.03504
 VISCAL:  Convergence failed
 SINVRT: spline inversion failed. Input value returned.
 SINVRT: spline inversion failed. Input value returned.
 Calculating wake trajectory ...
 Calculating source influence matrix ...

 Solving BL system ...

 MRCHDU: Convergence failed at  37  side 1    Res =  0.4244E+00
 MRCHDU: Convergence failed at  38  side 1    Res =  0.3365E+00
 MRCHDU: Convergence failed at  39  side 1    Res =  0.1915E+00
 MRCHDU: Convergence failed at  79  side 2    Res =  0.6436E+01
 Side 1  free  transition at x/c =  0.0320   24
 Side 2 forced transition at x/c =  0.9998   64

   1   rms: 0.3247E+01   max: -.1889E+02   T at   24  1   RLX: 0.026
       a = 10.500      CL =  1.8955
      Cm = -0.4383     CD =  0.12916   =>   CDf =  0.00299    CDp =  0.12617

 MRCHDU: Convergence failed at  40  side 1    Res =  0.3242E+00
 MRCHDU: Convergence failed at  41  side 1    Res =  0.1370E+01
 MRCHDU: Convergence failed at  42  side 1    Res =  0.7989E+00
 MRCHDU: Convergence failed at  43  side 1    Res =  0.7273E+00
 MRCHDU: Convergence failed at  44  side 1    Res =  0.6320E+00
 MRCHDU: Convergence failed at  45  side 1    Res =  0.5057E+00
 MRCHDU: Convergence failed at  46  side 1    Res =  0.2680E+00
 Side 1  free  transition at x/c =  0.0394   26
 Side 2 forced transition at x/c =  0.9998   64

   2   rms: 0.8268E+00   max: -.2613E+01   D at   26  1   RLX: 0.191
       a = 10.500      CL =  1.4882
      Cm = -0.2877     CD =  0.11378   =>   CDf =  0.00240    CDp =  0.11138

 MRCHDU: Convergence failed at  27  side 1    Res =  0.5432E+01
 MRCHDU: Convergence failed at  28  side 1    Res =  0.3559E+01
 MRCHDU: Convergence failed at  29  side 1    Res =  0.6707E+01
 MRCHDU: Convergence failed at  30  side 1    Res =  0.5677E+01
 MRCHDU: Convergence failed at  31  side 1    Res =  0.1867E+02
 MRCHDU: Convergence failed at  32  side 1    Res =  0.4176E+01
 MRCHDU: Convergence failed at  33  side 1    Res =  0.5019E+01
 MRCHDU: Convergence failed at  34  side 1    Res =  0.7215E+01
 MRCHDU: Convergence failed at  35  side 1    Res =  0.6746E+02
 MRCHDU: Convergence failed at  36  side 1    Res =  0.1329E+02
 MRCHDU: Convergence failed at  37  side 1    Res =  0.1933E+02
 MRCHDU: Convergence failed at  38  side 1    Res =  0.5748E+02
 MRCHDU: Convergence failed at  39  side 1    Res =  0.1925E+02
 MRCHDU: Convergence failed at  40  side 1    Res =  0.7122E+01
 MRCHDU: Convergence failed at  41  side 1    Res =  0.6676E+01
 MRCHDU: Convergence failed at  42  side 1    Res =  0.6290E+01
 MRCHDU: Convergence failed at  43  side 1    Res =  0.3069E+02
 MRCHDU: Convergence failed at  44  side 1    Res =  0.3660E+02
 MRCHDU: Convergence failed at  45  side 1    Res =  0.4326E+02
 MRCHDU: Convergence failed at  46  side 1    Res =  0.5392E+02
 MRCHDU: Convergence failed at  47  side 1    Res =  0.2599E+02
 MRCHDU: Convergence failed at  48  side 1    Res =  0.3985E+02
 MRCHDU: Convergence failed at  49  side 1    Res =  0.9923E+01
 MRCHDU: Convergence failed at  50  side 1    Res =  0.3099E+01
 MRCHDU: Convergence failed at  51  side 1    Res =  0.5809E+01
 MRCHDU: Convergence failed at  52  side 1    Res =  0.6397E+01
 MRCHDU: Convergence failed at  53  side 1    Res =  0.7047E+01
 MRCHDU: Convergence failed at  54  side 1    Res =  0.7948E+01
 MRCHDU: Convergence failed at  55  side 1    Res =  0.9029E+01
 MRCHDU: Convergence failed at  56  side 1    Res =  0.1055E+02
 MRCHDU: Convergence failed at  57  side 1    Res =  0.1308E+02
 MRCHDU: Convergence failed at  58  side 1    Res =  0.1597E+02
 MRCHDU: Convergence failed at  59  side 1    Res =  0.2190E+02
 MRCHDU: Convergence failed at  60  side 1    Res =  0.3513E+02
 MRCHDU: Convergence failed at  61  side 1    Res =  0.8614E+02
 MRCHDU: Convergence failed at  62  side 1    Res =  0.1908E+03
 MRCHDU: Convergence failed at  63  side 1    Res =  0.4337E+02
 MRCHDU: Convergence failed at  64  side 1    Res =  0.2490E+02
 MRCHDU: Convergence failed at  65  side 1    Res =  0.1775E+02
 MRCHDU: Convergence failed at  66  side 1    Res =  0.1347E+02
 MRCHDU: Convergence failed at  67  side 1    Res =  0.1206E+02
 MRCHDU: Convergence failed at  68  side 1    Res =  0.1003E+02
 MRCHDU: Convergence failed at  69  side 1    Res =  0.2120E+03
 MRCHDU: Convergence failed at  70  side 1    Res =  0.3079E+02
 MRCHDU: Convergence failed at  71  side 1    Res =  0.6391E+02
 MRCHDU: Convergence failed at  72  side 1    Res =  0.9321E+02
 MRCHDU: Convergence failed at  73  side 1    Res =  0.8654E+02
 MRCHDU: Convergence failed at  74  side 1    Res =  0.7618E+02
 MRCHDU: Convergence failed at  75  side 1    Res =  0.1078E+02
 MRCHDU: Convergence failed at  76  side 1    Res =  0.1137E+02
 MRCHDU: Convergence failed at  77  side 1    Res =  0.1196E+02
 MRCHDU: Convergence failed at  78  side 1    Res =  0.1259E+02
 MRCHDU: Convergence failed at  79  side 1    Res =  0.1306E+02
 MRCHDU: Convergence failed at  80  side 1    Res =  0.1343E+02
 MRCHDU: Convergence failed at  81  side 1    Res =  0.1363E+02
 MRCHDU: Convergence failed at  82  side 1    Res =  0.1348E+02
 MRCHDU: Convergence failed at  79  side 2    Res =  0.3989E+00
 MRCHDU: Convergence failed at  81  side 2    Res =  0.1871E+01
 Side 1  free  transition at x/c =  0.0366   26
 Side 2 forced transition at x/c =  0.9998   63

   3   rms: 0.3693E+01   max: 0.1316E+02   D at   80  1   RLX: 0.114
       a = 10.500      CL =  3.0255
      Cm = -0.7059     CD =  0.03707   =>   CDf =  0.00181    CDp =  0.03525

 MRCHDU: Convergence failed at  26  side 1    Res =  0.7494E+02
 MRCHDU: Convergence failed at  39  side 1    Res =  0.3825E+00
 MRCHDU: Convergence failed at  40  side 1    Res =  0.3509E+00
 MRCHDU: Convergence failed at  41  side 1    Res =  0.3146E+00
 MRCHDU: Convergence failed at  42  side 1    Res =  0.2703E+00
 MRCHDU: Convergence failed at  43  side 1    Res =  0.2048E+00
 Side 1  free  transition at x/c =  0.0302   25
 Side 2 forced transition at x/c =  0.9998   63

   4   rms: 0.2492E+01   max: 0.1843E+02   T at   25  1   RLX: 0.081
       a = 10.500      CL =  2.4034
      Cm = -0.4546     CD =  0.11429   =>   CDf =  0.00264    CDp =  0.11165

 Side 1  free  transition at x/c =  0.0327   27
 Side 2 forced transition at x/c =  0.9998   62

   5   rms: 0.1008E+01   max: 0.1205E+02   D at    2  1   RLX: 0.088
       a = 10.500      CL =  2.3147
      Cm = -0.4336     CD =  0.12855   =>   CDf =  0.00248    CDp =  0.12607

 Side 1  free  transition at x/c =  0.0335   27
 Side 2 forced transition at x/c =  0.9998   62

   6   rms: 0.6422E+00   max: 0.3080E+01   T at   27  1   RLX: 0.442
       a = 10.500      CL =  1.7342
      Cm = -0.2298     CD =  0.10848   =>   CDf =  0.00246    CDp =  0.10602

 Side 1  free  transition at x/c =  0.0318   26
 Side 2 forced transition at x/c =  0.9998   62

   7   rms: 0.9043E+00   max: -.9466E+01   T at   26  1   RLX: 0.053
       a = 10.500      CL =  1.6964
      Cm = -0.2226     CD =  0.11694   =>   CDf =  0.00216    CDp =  0.11477

 Side 1  free  transition at x/c =  0.0303   26
 Side 2 forced transition at x/c =  0.9998   62
 idif Ue xi dudx           2  0.19802903      8.70680809E-03   22.744160    
 Uenew xinew           3  9.69268009E-02  4.26161289E-03

   8   rms: 0.1112E+01   max: 0.3545E+01   D at   46  1   RLX: 0.311
       a = 10.500      CL =  1.2837
      Cm = -0.2045     CD =  0.14917   =>   CDf =  0.00272    CDp =  0.14645

 Side 1  free  transition at x/c =  0.0324   24
 Side 2 forced transition at x/c =  0.9998   64

   9   rms: 0.3254E+00   max: -.3984E+01   T at   24  1   RLX: 0.126
       a = 10.500      CL =  1.0389
      Cm = -0.1275     CD =  0.14302   =>   CDf =  0.00234    CDp =  0.14069

 Side 1  free  transition at x/c =  0.0333   25
 Side 2 forced transition at x/c =  0.9998   64

  10   rms: 0.1260E+00   max: 0.1121E+01   D at   25  1
       a = 10.500      CL =  0.8570
      Cm = -0.0856     CD =  0.13600   =>   CDf =  0.00232    CDp =  0.13369

 Side 1  free  transition at x/c =  0.0333   25
 Side 2 forced transition at x/c =  0.9998   64

  11   rms: 0.1449E+00   max: 0.1031E+01   T at   25  1
       a = 10.500      CL =  0.8140
      Cm = -0.0840     CD =  0.13377   =>   CDf =  0.00224    CDp =  0.13153

 Side 1  free  transition at x/c =  0.0319   24
 Side 2 forced transition at x/c =  0.9998   64

  12   rms: 0.1059E+01   max: -.1315E+02   T at   24  1   RLX: 0.038
       a = 10.500      CL =  0.7539
      Cm = -0.0612     CD =  0.12912   =>   CDf =  0.00230    CDp =  0.12683

 Side 1  free  transition at x/c =  0.0325   24
 Side 2 forced transition at x/c =  0.9998   64
 idif Ue xi dudx           1  0.18660308      6.66749477E-03   27.986986    
 Uenew xinew           2  8.68741423E-02  3.10409069E-03

  13   rms: 0.1164E+01   max: 0.3876E+01   D at   31  1   RLX: 0.289
       a = 10.500      CL =  0.7001
      Cm = -0.0918     CD =  0.17381   =>   CDf =  0.00253    CDp =  0.17127

 Side 1  free  transition at x/c =  0.0320   23
 Side 2 forced transition at x/c =  0.9998   65

  14   rms: 0.2265E+00   max: 0.1371E+01   D at   24  1   RLX: 0.975
       a = 10.500      CL =  0.7283
      Cm = -0.0982     CD =  0.17468   =>   CDf =  0.00237    CDp =  0.17231

 Side 1  free  transition at x/c =  0.0769   29
 Side 2 forced transition at x/c =  0.9998   65
 idif Ue xi dudx           1  0.11960941      3.56161594E-03   33.582905    
 Uenew xinew           2  1.11214295E-02  3.31163406E-04

  15   rms: 0.2708E+02   max: 0.3550E+03   T at   29  1   RLX: 0.004
       a = 10.500      CL =  0.5879
      Cm = -0.0561     CD =  0.15549   =>   CDf =  0.00243    CDp =  0.15306
 VISCAL:  Convergence failed
 SINVRT: spline inversion failed. Input value returned.
 SINVRT: spline inversion failed. Input value returned.
 Calculating wake trajectory ...
 Calculating source influence matrix ...

 Solving BL system ...

 Side 1  free  transition at x/c =  0.0640   26
 Side 2 forced transition at x/c =  0.9998   66

   1   rms: 0.1905E+01   max: 0.5956E+01   D at    2  2   RLX: 0.136
       a = 11.000      CL =  0.6447
      Cm = -0.0244     CD =  0.11574   =>   CDf =  0.00206    CDp =  0.11368

 Side 1  free  transition at x/c =  0.0677   29
 Side 2 forced transition at x/c =  0.9998   64

   2   rms: 0.1481E+01   max: 0.8494E+01   T at   29  1   RLX: 0.096
       a = 11.000      CL =  0.6826
      Cm = -0.0007     CD =  0.07897   =>   CDf =  0.00350    CDp =  0.07547

 Side 1  free  transition at x/c =  0.0644   28
 Side 2 forced transition at x/c =  0.9998   64
 idif Ue xi dudx           1  0.14690834      4.77457047E-03   30.768913    
 Uenew xinew           2  3.72662731E-02  1.21116638E-03

   3   rms: 0.6700E+01   max: 0.3062E+02   D at   55  1   RLX: 0.049
       a = 11.000      CL =  0.5797
      Cm = -0.0226     CD =  0.14257   =>   CDf =  0.00330    CDp =  0.13927

 Side 1  free  transition at x/c =  0.0685   28
 Side 2 forced transition at x/c =  0.9998   65

   4   rms: 0.2350E+01   max: 0.2920E+02   T at   28  1   RLX: 0.051
       a = 11.000      CL =  0.5659
      Cm =  0.0021     CD =  0.08338   =>   CDf =  0.00434    CDp =  0.07905

 MRCHDU: Convergence failed at  28  side 1    Res =  0.1164E+02
 MRCHDU: Convergence failed at  29  side 1    Res =  0.6181E+02
 MRCHDU: Convergence failed at  30  side 1    Res =  0.1332E+04
 MRCHDU: Convergence failed at  31  side 1    Res =  0.1850E+03
 MRCHDU: Convergence failed at  32  side 1    Res =  0.7649E+03
 MRCHDU: Convergence failed at  33  side 1    Res =  0.4558E+03
 MRCHDU: Convergence failed at  34  side 1    Res =  0.3635E+03
 MRCHDU: Convergence failed at  35  side 1    Res =  0.1168E+03
 MRCHDU: Convergence failed at  36  side 1    Res =  0.1432E+03
 MRCHDU: Convergence failed at  37  side 1    Res =  0.1459E+03
 MRCHDU: Convergence failed at  38  side 1    Res =  0.7104E+03
 MRCHDU: Convergence failed at  39  side 1    Res =  0.1544E+05
 MRCHDU: Convergence failed at  40  side 1    Res =  0.2716E+03
 MRCHDU: Convergence failed at  41  side 1    Res =  0.3662E+03
 MRCHDU: Convergence failed at  42  side 1    Res =  0.5411E+03
 MRCHDU: Convergence failed at  43  side 1    Res =  0.5837E+03
 MRCHDU: Convergence failed at  44  side 1    Res =  0.1023E+03
 MRCHDU: Convergence failed at  45  side 1    Res =  0.9852E+02
 MRCHDU: Convergence failed at  46  side 1    Res =  0.7781E+02
 MRCHDU: Convergence failed at  47  side 1    Res =  0.8283E+02
 MRCHDU: Convergence failed at  48  side 1    Res =  0.8812E+02
 MRCHDU: Convergence failed at  49  side 1    Res =  0.1055E+03
 MRCHDU: Convergence failed at  50  side 1    Res =  0.7781E+02
 MRCHDU: Convergence failed at  51  side 1    Res =  0.8053E+02
 MRCHDU: Convergence failed at  52  side 1    Res =  0.7874E+02
 MRCHDU: Convergence failed at  53  side 1    Res =  0.9719E+02
 MRCHDU: Convergence failed at  54  side 1    Res =  0.1230E+03
 MRCHDU: Convergence failed at  55  side 1    Res =  0.4486E+03
 MRCHDU: Convergence failed at  56  side 1    Res =  0.4915E+03
 MRCHDU: Convergence failed at  57  side 1    Res =  0.2363E+03
 MRCHDU: Convergence failed at  58  side 1    Res =  0.2541E+03
 MRCHDU: Convergence failed at  59  side 1    Res =  0.1989E+04
 MRCHDU: Convergence failed at  60  side 1    Res =  0.8733E+03
 MRCHDU: Convergence failed at  61  side 1    Res =  0.3900E+04
 MRCHDU: Convergence failed at  62  side 1    Res =  0.5947E+04
 MRCHDU: Convergence failed at  63  side 1    Res =  0.1839E+04
 MRCHDU: Convergence failed at  64  side 1    Res =  0.4415E+03
 MRCHDU: Convergence failed at  65  side 1    Res =  0.1749E+03
 MRCHDU: Convergence failed at  66  side 1    Res =  0.1588E+03
 MRCHDU: Convergence failed at  67  side 1    Res =  0.1840E+03
 MRCHDU: Convergence failed at  68  side 1    Res =  0.1299E+03
 MRCHDU: Convergence failed at  69  side 1    Res =  0.8579E+02
 MRCHDU: Convergence failed at  70  side 1    Res =  0.8809E+02
 MRCHDU: Convergence failed at  71  side 1    Res =  0.1048E+03
 MRCHDU: Convergence failed at  72  side 1    Res =  0.1246E+03
 MRCHDU: Convergence failed at  73  side 1    Res =  0.1350E+03
 MRCHDU: Convergence failed at  74  side 1    Res =  0.1448E+03
 MRCHDU: Convergence failed at  75  side 1    Res =  0.3760E+03
 MRCHDU: Convergence failed at  76  side 1    Res =  0.3241E+03
 MRCHDU: Convergence failed at  77  side 1    Res =  0.4716E+03
 MRCHDU: Convergence failed at  78  side 1    Res =  0.4565E+03
 MRCHDU: Convergence failed at  79  side 1    Res =  0.7275E+03
 MRCHDU: Convergence failed at  80  side 1    Res =  0.2626E+04
 MRCHDU: Convergence failed at  79  side 2    Res =  0.5628E+01
 MRCHDU: Convergence failed at  80  side 2    Res =  0.7034E+01
 MRCHDU: Convergence failed at  81  side 2    Res =  0.2440E+02
 MRCHDU: Convergence failed at  82  side 2    Res =  0.7598E+01
 MRCHDU: Convergence failed at  83  side 2    Res =  0.1526E+01
 MRCHDU: Convergence failed at  84  side 2    Res =  0.1041E+01
 Side 1  free  transition at x/c =  0.0560   27
 Side 2 forced transition at x/c =  0.9998   65

   5   rms: 0.1182E+01   max: 0.1414E+02   T at   27  1   RLX: 0.106
       a = 11.000      CL =  1.7198
      Cm = -0.3986     CD =  0.04226   =>   CDf =  0.00213    CDp =  0.04013

 MRCHDU: Convergence failed at  78  side 2    Res =  0.3688E+01
 MRCHDU: Convergence failed at  79  side 2    Res =  0.5056E+02
 Side 1  free  transition at x/c =  0.0538   26
 Side 2 forced transition at x/c =  0.9998   65

   6   rms: 0.1883E+01   max: 0.1743E+02   T at   27  1   RLX: 0.036
       a = 11.000      CL =  1.4875
      Cm = -0.3088     CD =  0.15525   =>   CDf =  0.00214    CDp =  0.15312

 Side 1  free  transition at x/c =  0.0498   27
 Side 2 forced transition at x/c =  0.9998   64

   7   rms: 0.8066E+00   max: -.1317E+02   T at   27  1   RLX: 0.038
       a = 11.000      CL =  1.5517
      Cm = -0.3246     CD =  0.17144   =>   CDf =  0.00234    CDp =  0.16910

 Side 1  free  transition at x/c =  0.0494   27
 Side 2 forced transition at x/c =  0.9998   64
 idif Ue xi dudx           1  0.12207677      4.05406952E-03   30.112156    
 Uenew xinew           2  1.47749940E-02  4.90665436E-04

   8   rms: 0.4322E+00   max: -.2421E+01   T at   27  1   RLX: 0.207
       a = 11.000      CL =  1.4687
      Cm = -0.3025     CD =  0.17380   =>   CDf =  0.00256    CDp =  0.17124

 Side 1  free  transition at x/c =  0.0492   26
 Side 2 forced transition at x/c =  0.9998   65

   9   rms: 0.3675E+00   max: -.1218E+01   T at   80  2   RLX: 0.410
       a = 11.000      CL =  1.3048
      Cm = -0.2537     CD =  0.15350   =>   CDf =  0.00249    CDp =  0.15101

 Side 1  free  transition at x/c =  0.0474   26
 Side 2 forced transition at x/c =  0.9998   65

  10   rms: 0.3104E+00   max: 0.2423E+01   T at   26  1   RLX: 0.399
       a = 11.000      CL =  1.1923
      Cm = -0.2157     CD =  0.18649   =>   CDf =  0.00270    CDp =  0.18379

 Side 1  free  transition at x/c =  0.0451   25
 Side 2 forced transition at x/c =  0.9998   65

  11   rms: 0.2097E+00   max: 0.1161E+01   C at   65  2   RLX: 0.723
       a = 11.000      CL =  1.0247
      Cm = -0.1623     CD =  0.16191   =>   CDf =  0.00277    CDp =  0.15914

 Side 1  free  transition at x/c =  0.0407   25
 Side 2 forced transition at x/c =  0.9998   65

  12   rms: 0.1357E+00   max: 0.5405E+00   T at   25  1   RLX: 0.985
       a = 11.000      CL =  0.9740
      Cm = -0.1392     CD =  0.18569   =>   CDf =  0.00275    CDp =  0.18295

 Side 1  free  transition at x/c =  0.0398   25
 Side 2 forced transition at x/c =  0.9998   65

  13   rms: 0.9638E-01   max: -.2658E+00   D at   82  2
       a = 11.000      CL =  1.0267
      Cm = -0.1372     CD =  0.19214   =>   CDf =  0.00239    CDp =  0.18974

 Side 1  free  transition at x/c =  0.0393   26
 Side 2 forced transition at x/c =  0.9998   64

  14   rms: 0.2885E-01   max: -.1217E+00   D at    3  1
       a = 11.000      CL =  1.0378
      Cm = -0.1361     CD =  0.19123   =>   CDf =  0.00255    CDp =  0.18867

 Side 1  free  transition at x/c =  0.0392   26
 Side 2 forced transition at x/c =  0.9998   64

  15   rms: 0.7764E-02   max: 0.3677E-01   T at   26  1
       a = 11.000      CL =  1.0409
      Cm = -0.1357     CD =  0.19281   =>   CDf =  0.00254    CDp =  0.19027
 VISCAL:  Convergence failed
 SINVRT: spline inversion failed. Input value returned.

 Sequence halted since previous  4 points did not converge
 Last-converged  alpha =   9.000    CL =   1.23734

.OPERva   c>  
 Polar accumulation disabled

.OPERv   c>  
        airfoil                    Re           Mach       Ncrit  XtripT  XtripB     file
       ------------------------  ------------  ----------  -----  ------  ------    -------------------
    1  HT 14                     2.430e5       0.000        9.00   1.000   1.000    

Enter polar output filename   s>  
 Output file exists.  Overwrite?  Y

.OPERv   c>  
 XFOIL   c>  
 XFOIL   c>  