
 ===================================================
  XFOIL Version 6.99
  Copyright (C) 2000   Mark Drela, Harold Youngren

  This software comes with ABSOLUTELY NO WARRANTY,
    subject to the GNU General Public License.

  Caveat computor
 ===================================================

 File  xfoil.def  not found

   QUIT    Exit program

  .OPER    Direct operating point(s)
  .MDES    Complex mapping design routine
  .QDES    Surface speed design routine
  .GDES    Geometry design routine

   SAVE f  Write airfoil to labeled coordinate file
   PSAV f  Write airfoil to plain coordinate file
   ISAV f  Write airfoil to ISES coordinate file
   MSAV f  Write airfoil to MSES coordinate file
   REVE    Reverse written-airfoil node ordering

   LOAD f  Read buffer airfoil from coordinate file
   NACA i  Set NACA 4,5-digit airfoil and buffer airfoil
   INTE    Set buffer airfoil by interpolating two airfoils
   NORM    Buffer airfoil normalization toggle
   XYCM rr Change CM reference location, currently  0.25000 0.00000

   BEND    Display structural properties of current airfoil

   PCOP    Set current-airfoil panel nodes directly from buffer airfoil points
   PANE    Set current-airfoil panel nodes ( 160 ) based on curvature
  .PPAR    Show/change paneling

  .PLOP    Plotting options

   WDEF f  Write  current-settings file
   RDEF f  Reread current-settings file
   NAME s  Specify new airfoil name
   NINC    Increment name version number

   Z       Zoom    | (available in all menus)
   U       Unzoom  | 

 XFOIL   c>  
 Labeled airfoil file.  Name:  HT 14                                           

 Number of input coordinate points: 143
 Counterclockwise ordering
 Max thickness =     0.075308  at x =   0.196
 Max camber    =     0.081294  at x =   0.800

  LE  x,y  =   0.00008   0.00151  |   Chord =   0.97843
  TE  x,y  =   0.97322  -0.10001  |

 Current airfoil nodes set from buffer airfoil nodes ( 143 )

 XFOIL   c>  
.OPERi   c>  
Enter Reynolds number   r>  
 M  =    0.0000
 Re =    243000

.OPERv   c>   Calculating unit vorticity distributions ...
 Calculating wake trajectory ...
 Calculating source influence matrix ...

 Solving BL system ...

 Initializing BL ...
    side            1  ...
 MRCHUE: Inverse mode at  16     Hk =   4.078
 MRCHUE: Inverse mode at  17     Hk =   4.880
 MRCHUE: Inverse mode at  18     Hk =   5.625
 MRCHUE: Inverse mode at  19     Hk =   6.347
 MRCHUE: Inverse mode at  20     Hk =   7.068
 MRCHUE: Inverse mode at  21     Hk =   7.802
 MRCHUE: Inverse mode at  22     Hk =   8.564
 MRCHUE: Inverse mode at  23     Hk =   9.368
 MRCHUE: Inverse mode at  24     Hk =  10.225
 MRCHUE: Inverse mode at  25     Hk =   6.655
 MRCHUE: Inverse mode at  26     Hk =   3.979
 MRCHUE: Inverse mode at  27     Hk =   2.500
 MRCHUE: Convergence failed at  71  side 1    Res =  0.4130E+00
 MRCHUE: Inverse mode at  77     Hk =   2.500
 MRCHUE: Inverse mode at  78     Hk =   2.500
 MRCHUE: Inverse mode at  79     Hk =   2.500
 MRCHUE: Inverse mode at  80     Hk =   2.500
 MRCHUE: Convergence failed at  81  side 1    Res =  0.3968E+01
 MRCHUE: Inverse mode at  82     Hk =   2.500
    side            2  ...
 MRCHUE: Inverse mode at  36     Hk =   4.229
 MRCHUE: Inverse mode at  37     Hk =   4.700
 MRCHUE: Inverse mode at  38     Hk =   5.157
 MRCHUE: Inverse mode at  39     Hk =   5.603
 MRCHUE: Inverse mode at  40     Hk =   6.040
 MRCHUE: Inverse mode at  41     Hk =   6.468
 MRCHUE: Inverse mode at  42     Hk =   6.888
 MRCHUE: Inverse mode at  43     Hk =   7.302
 MRCHUE: Inverse mode at  44     Hk =   7.710
 MRCHUE: Inverse mode at  45     Hk =   8.113
 MRCHUE: Inverse mode at  46     Hk =   8.511
 MRCHUE: Inverse mode at  47     Hk =   8.905
 MRCHUE: Inverse mode at  48     Hk =   9.295
 MRCHUE: Inverse mode at  49     Hk =   9.545
 MRCHUE: Inverse mode at  50     Hk =   9.670
 MRCHUE: Inverse mode at  51     Hk =   9.345
 MRCHUE: Inverse mode at  52     Hk =   8.512
 MRCHUE: Inverse mode at  53     Hk =   7.119
 MRCHUE: Inverse mode at  54     Hk =   6.121
 MRCHUE: Inverse mode at  55     Hk =   5.334
 MRCHUE: Inverse mode at  56     Hk =   4.684
 MRCHUE: Inverse mode at  57     Hk =   4.133
 MRCHUE: Inverse mode at  58     Hk =   3.662
 MRCHUE: Inverse mode at  59     Hk =   3.261
 MRCHUE: Inverse mode at  60     Hk =   2.925
 MRCHUE: Convergence failed at  61  side 2    Res =  0.1126E+00

 MRCHDU: Convergence failed at  73  side 1    Res =  0.1009E+02
 MRCHDU: Convergence failed at  74  side 1    Res =  0.1923E+01
 MRCHDU: Convergence failed at  75  side 1    Res =  0.7744E+01
 MRCHDU: Convergence failed at  76  side 1    Res =  0.2988E+01
 MRCHDU: Convergence failed at  77  side 1    Res =  0.3290E+01
 MRCHDU: Convergence failed at  78  side 1    Res =  0.3462E+01
 MRCHDU: Convergence failed at  79  side 1    Res =  0.3601E+01
 MRCHDU: Convergence failed at  80  side 1    Res =  0.3756E+01
 MRCHDU: Convergence failed at  81  side 1    Res =  0.1755E+03
 MRCHDU: Convergence failed at  82  side 1    Res =  0.8002E+02
 Side 1  free  transition at x/c =  0.0276   25
 Side 2  free  transition at x/c =  0.8132   51

   1   rms: 0.5546E+00   max: -.2483E+01   D at   61  2   RLX: 0.201
       a =  0.000      CL =  2.0146
      Cm = -0.4160     CD =  0.00814   =>   CDf =  0.00884    CDp = -0.00070

 Side 1  free  transition at x/c =  0.0282   25
 Side 2  free  transition at x/c =  0.8019   49

   2   rms: 0.5679E+00   max: 0.3679E+01   T at   49  2   RLX: 0.288
       a =  0.000      CL =  1.8928
      Cm = -0.3693     CD =  0.01094   =>   CDf =  0.00897    CDp =  0.00197

 Side 1  free  transition at x/c =  0.0313   25
 Side 2  free  transition at x/c =  0.7705   47

   3   rms: 0.5545E+00   max: -.4363E+01   T at   25  1   RLX: 0.115
       a =  0.000      CL =  1.8410
      Cm = -0.3543     CD =  0.01411   =>   CDf =  0.00897    CDp =  0.00514

 Side 1  free  transition at x/c =  0.0353   26
 Side 2  free  transition at x/c =  0.7607   47
 idif Ue xi dudx           1  0.12445805      4.62245941E-03   26.924639    
 Uenew xinew           2  1.77366193E-02  6.58750534E-04

   4   rms: 0.5190E+00   max: -.1727E+01   T at   26  1   RLX: 0.290
       a =  0.000      CL =  1.7347
      Cm = -0.3243     CD =  0.01431   =>   CDf =  0.00940    CDp =  0.00491

 Side 1  free  transition at x/c =  0.0413   26
 Side 2  free  transition at x/c =  0.7503   47

   5   rms: 0.6856E+00   max: -.3301E+01   T at   26  1   RLX: 0.151
       a =  0.000      CL =  1.6438
      Cm = -0.3021     CD =  0.01629   =>   CDf =  0.00869    CDp =  0.00760

 Side 1  free  transition at x/c =  0.0463   27
 Side 2  free  transition at x/c =  0.7372   47

   6   rms: 0.2171E+01   max: -.1623E+02   T at   27  1   RLX: 0.031
       a =  0.000      CL =  1.5934
      Cm = -0.2907     CD =  0.01879   =>   CDf =  0.00868    CDp =  0.01011

 Side 1  free  transition at x/c =  0.0502   27
 Side 2  free  transition at x/c =  0.7358   47
 idif Ue xi dudx           1  0.13023132      4.05120850E-03   32.146290    
 Uenew xinew           2  1.56811029E-02  4.87804413E-04

   7   rms: 0.4349E+00   max: -.2678E+01   T at   27  1   RLX: 0.187
       a =  0.000      CL =  1.5109
      Cm = -0.2656     CD =  0.02345   =>   CDf =  0.00877    CDp =  0.01469

 Side 1  free  transition at x/c =  0.0555   27
 Side 2  free  transition at x/c =  0.7321   47

   8   rms: 0.8249E+00   max: -.5781E+01   T at   27  1   RLX: 0.086
       a =  0.000      CL =  1.4561
      Cm = -0.2565     CD =  0.02289   =>   CDf =  0.00843    CDp =  0.01447

 Side 1  free  transition at x/c =  0.0600   27
 Side 2  free  transition at x/c =  0.7227   47

   9   rms: 0.3794E+00   max: -.2372E+01   T at   27  1   RLX: 0.211
       a =  0.000      CL =  1.3715
      Cm = -0.2328     CD =  0.02758   =>   CDf =  0.00814    CDp =  0.01944

 Side 1  free  transition at x/c =  0.0668   28
 Side 2  free  transition at x/c =  0.7157   47
 idif Ue xi dudx           1  0.13517919      3.76868248E-03   35.869083    
 Uenew xinew           2  1.93058141E-02  5.38229942E-04

  10   rms: 0.4195E+00   max: -.2623E+01   T at   28  1   RLX: 0.191
       a =  0.000      CL =  1.3115
      Cm = -0.2243     CD =  0.02798   =>   CDf =  0.00847    CDp =  0.01951
 VISCAL:  Convergence failed
 Type "!" to continue iterating

.OPERv   c>  
  Top    surface:  y =  0.0001     y/t = 1.0
  Bottom surface:  y = -0.0000     y/t = 0.0

 Flap hinge x,y :  0.0000  0.0000
                                           2  2
 Hinge moment/span = 0.552279  x  1/2 rho V  c 
                                           2   
 x-Force     /span = 0.032675  x  1/2 rho V  c 
                                           2   
 y-Force     /span = 1.311528  x  1/2 rho V  c 


.OPERv   c>   SINVRT: spline inversion failed. Input value returned.
 SINVRT: spline inversion failed. Input value returned.
 Calculating wake trajectory ...
 Calculating source influence matrix ...

 Solving BL system ...

 Side 1  free  transition at x/c =  0.0734   27
 Side 2  free  transition at x/c =  0.7134   47

   1   rms: 0.1422E+00   max: 0.5773E+00   D at   77  2   RLX: 0.627
       a =  1.000      CL =  1.2232
      Cm = -0.1833     CD =  0.03487   =>   CDf =  0.00799    CDp =  0.02687

 Side 1  free  transition at x/c =  0.0755   28
 Side 2  free  transition at x/c =  0.7122   47

   2   rms: 0.2069E+00   max: 0.8803E+00   T at   28  1
       a =  1.000      CL =  1.2837
      Cm = -0.1787     CD =  0.03495   =>   CDf =  0.00749    CDp =  0.02746

 MRCHDU: Convergence failed at  29  side 1    Res =  0.2861E+01
 MRCHDU: Convergence failed at  30  side 1    Res =  0.5163E+02
 MRCHDU: Convergence failed at  31  side 1    Res =  0.1409E+02
 MRCHDU: Convergence failed at  32  side 1    Res =  0.1311E+02
 MRCHDU: Convergence failed at  33  side 1    Res =  0.1501E+02
 MRCHDU: Convergence failed at  34  side 1    Res =  0.1747E+02
 MRCHDU: Convergence failed at  35  side 1    Res =  0.2165E+02
 MRCHDU: Convergence failed at  36  side 1    Res =  0.2529E+02
 MRCHDU: Convergence failed at  37  side 1    Res =  0.2794E+02
 MRCHDU: Convergence failed at  38  side 1    Res =  0.3191E+02
 MRCHDU: Convergence failed at  39  side 1    Res =  0.3729E+02
 MRCHDU: Convergence failed at  40  side 1    Res =  0.4296E+02
 MRCHDU: Convergence failed at  41  side 1    Res =  0.4590E+02
 MRCHDU: Convergence failed at  42  side 1    Res =  0.5147E+02
 MRCHDU: Convergence failed at  43  side 1    Res =  0.6228E+02
 MRCHDU: Convergence failed at  44  side 1    Res =  0.7497E+02
 MRCHDU: Convergence failed at  45  side 1    Res =  0.9651E+02
 MRCHDU: Convergence failed at  46  side 1    Res =  0.1243E+03
 MRCHDU: Convergence failed at  47  side 1    Res =  0.1713E+03
 MRCHDU: Convergence failed at  48  side 1    Res =  0.2593E+03
 MRCHDU: Convergence failed at  49  side 1    Res =  0.4207E+03
 MRCHDU: Convergence failed at  50  side 1    Res =  0.1475E+04
 MRCHDU: Convergence failed at  51  side 1    Res =  0.1135E+03
 MRCHDU: Convergence failed at  52  side 1    Res =  0.1268E+03
 MRCHDU: Convergence failed at  53  side 1    Res =  0.1414E+03
 MRCHDU: Convergence failed at  54  side 1    Res =  0.1417E+03
 MRCHDU: Convergence failed at  55  side 1    Res =  0.1411E+03
 MRCHDU: Convergence failed at  56  side 1    Res =  0.1306E+03
 MRCHDU: Convergence failed at  57  side 1    Res =  0.1124E+03
 MRCHDU: Convergence failed at  58  side 1    Res =  0.1181E+04
 MRCHDU: Convergence failed at  59  side 1    Res =  0.3176E+03
 MRCHDU: Convergence failed at  60  side 1    Res =  0.1635E+03
 MRCHDU: Convergence failed at  61  side 1    Res =  0.1026E+03
 MRCHDU: Convergence failed at  62  side 1    Res =  0.6832E+02
 MRCHDU: Convergence failed at  63  side 1    Res =  0.4710E+02
 MRCHDU: Convergence failed at  64  side 1    Res =  0.3201E+02
 MRCHDU: Convergence failed at  65  side 1    Res =  0.2170E+02
 MRCHDU: Convergence failed at  66  side 1    Res =  0.1310E+02
 MRCHDU: Convergence failed at  67  side 1    Res =  0.5053E+01
 MRCHDU: Convergence failed at  69  side 1    Res =  0.2367E+01
 MRCHDU: Convergence failed at  70  side 1    Res =  0.9697E+00
 MRCHDU: Convergence failed at  71  side 1    Res =  0.1645E+01
 MRCHDU: Convergence failed at  72  side 1    Res =  0.1768E+01
 MRCHDU: Convergence failed at  73  side 1    Res =  0.1378E+01
 MRCHDU: Convergence failed at  74  side 1    Res =  0.3542E+01
 MRCHDU: Convergence failed at  75  side 1    Res =  0.1829E+01
 MRCHDU: Convergence failed at  76  side 1    Res =  0.1156E+01
 MRCHDU: Convergence failed at  77  side 1    Res =  0.1650E+01
 MRCHDU: Convergence failed at  78  side 1    Res =  0.6634E+01
 MRCHDU: Convergence failed at  79  side 1    Res =  0.1186E+02
 MRCHDU: Convergence failed at  80  side 1    Res =  0.5980E+01
 MRCHDU: Convergence failed at  76  side 2    Res =  0.6400E+01
 MRCHDU: Convergence failed at  77  side 2    Res =  0.3343E+01
 MRCHDU: Convergence failed at  78  side 2    Res =  0.1193E+01
 Side 1  free  transition at x/c =  0.0619   27
 Side 2  free  transition at x/c =  0.7190   47

   3   rms: 0.8008E+00   max: 0.8533E+01   T at   27  1   RLX: 0.099
       a =  1.000      CL =  2.2823
      Cm = -0.5106     CD =  0.01258   =>   CDf =  0.00349    CDp =  0.00909

 MRCHDU: Convergence failed at  68  side 1    Res =  0.8452E+00
 MRCHDU: Convergence failed at  69  side 1    Res =  0.6839E+00
 MRCHDU: Convergence failed at  70  side 1    Res =  0.6452E+00
 MRCHDU: Convergence failed at  71  side 1    Res =  0.6098E+00
 MRCHDU: Convergence failed at  72  side 1    Res =  0.5799E+00
 MRCHDU: Convergence failed at  73  side 1    Res =  0.5539E+00
 MRCHDU: Convergence failed at  74  side 1    Res =  0.5293E+00
 MRCHDU: Convergence failed at  75  side 1    Res =  0.5067E+00
 MRCHDU: Convergence failed at  76  side 1    Res =  0.4853E+00
 MRCHDU: Convergence failed at  77  side 1    Res =  0.4659E+00
 MRCHDU: Convergence failed at  78  side 1    Res =  0.4492E+00
 MRCHDU: Convergence failed at  79  side 1    Res =  0.4352E+00
 MRCHDU: Convergence failed at  80  side 1    Res =  0.4350E+00
 Side 1  free  transition at x/c =  0.0533   26
 Side 2  free  transition at x/c =  0.7207   47

   4   rms: 0.6447E+00   max: 0.4687E+01   T at   26  1   RLX: 0.179
       a =  1.000      CL =  1.7016
      Cm = -0.3266     CD =  0.05894   =>   CDf =  0.00205    CDp =  0.05689

 Side 1  free  transition at x/c =  0.0483   26
 Side 2  free  transition at x/c =  0.7206   47
 idif Ue xi dudx           1  0.11819828      3.23235989E-03   36.567177    
 Uenew xinew           2  6.97463547E-05  1.90734863E-06

   5   rms: 0.4141E+00   max: -.1785E+01   T at   26  1   RLX: 0.280
       a =  1.000      CL =  1.5160
      Cm = -0.2744     CD =  0.07797   =>   CDf =  0.00219    CDp =  0.07578

 Side 1  free  transition at x/c =  0.0529   25
 Side 2  free  transition at x/c =  0.7172   48

   6   rms: 0.2873E+01   max: -.4770E+02   T at    2  2   RLX: 0.010
       a =  1.000      CL =  1.4972
      Cm = -0.2702     CD =  0.08862   =>   CDf =  0.00201    CDp =  0.08661

 Side 1  free  transition at x/c =  0.0527   25
 Side 2  free  transition at x/c =  0.7172   48

   7   rms: 0.8172E+00   max: 0.7551E+01   T at   25  1   RLX: 0.080
       a =  1.000      CL =  1.4913
      Cm = -0.2592     CD =  0.08860   =>   CDf =  0.00201    CDp =  0.08659

 Side 1  free  transition at x/c =  0.0490   25
 Side 2  free  transition at x/c =  0.7171   48

   8   rms: 0.3687E+00   max: -.2297E+01   T at   25  1   RLX: 0.218
       a =  1.000      CL =  1.3996
      Cm = -0.2400     CD =  0.09192   =>   CDf =  0.00194    CDp =  0.08998

 Side 1  free  transition at x/c =  0.0534   25
 Side 2  free  transition at x/c =  0.7147   47

   9   rms: 0.5877E+00   max: -.6453E+01   T at   26  1   RLX: 0.077
       a =  1.000      CL =  1.3806
      Cm = -0.2323     CD =  0.09980   =>   CDf =  0.00201    CDp =  0.09779

 Side 1  free  transition at x/c =  0.0523   25
 Side 2  free  transition at x/c =  0.7131   47

  10   rms: 0.3985E+00   max: -.3146E+01   T at   25  1   RLX: 0.159
       a =  1.000      CL =  1.3289
      Cm = -0.2215     CD =  0.09974   =>   CDf =  0.00197    CDp =  0.09777
 VISCAL:  Convergence failed
 SINVRT: spline inversion failed. Input value returned.
 SINVRT: spline inversion failed. Input value returned.
 Type "!" to continue iterating

.OPERv   c>   SINVRT: spline inversion failed. Input value returned.
 SINVRT: spline inversion failed. Input value returned.

 Flap hinge x,y :  0.0000  0.0000
                                           2  2
 Hinge moment/span = 0.162930  x  1/2 rho V  c 
                                           2   
 x-Force     /span = 0.034047  x  1/2 rho V  c 
                                           2   
 y-Force     /span = 0.331327  x  1/2 rho V  c 


.OPERv   c>   SINVRT: spline inversion failed. Input value returned.
 SINVRT: spline inversion failed. Input value returned.
 Calculating wake trajectory ...
 Calculating source influence matrix ...

 Solving BL system ...

 Side 1  free  transition at x/c =  0.0552   26
 Side 2  free  transition at x/c =  0.7104   47

   1   rms: 0.2847E+00   max: -.8992E+00   D at   27  1   RLX: 0.491
       a =  2.000      CL =  1.1787
      Cm = -0.1712     CD =  0.08849   =>   CDf =  0.00204    CDp =  0.08645

 Side 1  free  transition at x/c =  0.0566   26
 Side 2  free  transition at x/c =  0.7184   48

   2   rms: 0.4480E+00   max: -.1662E+01   D at   49  1   RLX: 0.301
       a =  2.000      CL =  1.1005
      Cm = -0.1426     CD =  0.07648   =>   CDf =  0.00238    CDp =  0.07410

 Side 1  free  transition at x/c =  0.0593   26
 Side 2  free  transition at x/c =  0.7196   48

   3   rms: 0.7084E+00   max: -.3654E+01   T at   26  1   RLX: 0.137
       a =  2.000      CL =  1.0720
      Cm = -0.1393     CD =  0.06874   =>   CDf =  0.00288    CDp =  0.06586

 Side 1  free  transition at x/c =  0.0652   27
 Side 2  free  transition at x/c =  0.7200   48

   4   rms: 0.6922E+00   max: -.2511E+01   D at   67  1   RLX: 0.199
       a =  2.000      CL =  1.1134
      Cm = -0.1393     CD =  0.04882   =>   CDf =  0.00387    CDp =  0.04495

 Side 1  free  transition at x/c =  0.0636   27
 Side 2  free  transition at x/c =  0.7237   47

   5   rms: 0.8477E+00   max: -.4039E+01   D at   33  1   RLX: 0.124
       a =  2.000      CL =  1.1304
      Cm = -0.1408     CD =  0.04654   =>   CDf =  0.00512    CDp =  0.04142

 Side 1  free  transition at x/c =  0.0731   28
 Side 2  free  transition at x/c =  0.7262   47

   6   rms: 0.3804E+00   max: 0.1845E+01   T at   28  1   RLX: 0.311
       a =  2.000      CL =  1.2100
      Cm = -0.1471     CD =  0.03865   =>   CDf =  0.00608    CDp =  0.03257

 MRCHDU: Convergence failed at  51  side 1    Res =  0.9247E+00
 Side 1  free  transition at x/c =  0.0618   27
 Side 2  free  transition at x/c =  0.7316   47

   7   rms: 0.2550E+00   max: 0.1769E+01   T at   27  1   RLX: 0.373
       a =  2.000      CL =  1.2942
      Cm = -0.1615     CD =  0.03780   =>   CDf =  0.00677    CDp =  0.03103

 Side 1  free  transition at x/c =  0.0524   27
 Side 2  free  transition at x/c =  0.7385   47

   8   rms: 0.1111E+00   max: 0.5998E+00   T at   27  1
       a =  2.000      CL =  1.3283
      Cm = -0.1663     CD =  0.03669   =>   CDf =  0.00734    CDp =  0.02936

 Side 1  free  transition at x/c =  0.0453   26
 Side 2  free  transition at x/c =  0.7378   47

   9   rms: 0.4400E-01   max: 0.1467E+00   D at   73  1
       a =  2.000      CL =  1.2987
      Cm = -0.1620     CD =  0.03932   =>   CDf =  0.00761    CDp =  0.03171

 Side 1  free  transition at x/c =  0.0481   27
 Side 2  free  transition at x/c =  0.7362   47

  10   rms: 0.5022E-01   max: 0.5186E+00   D at   27  1
       a =  2.000      CL =  1.2788
      Cm = -0.1588     CD =  0.03970   =>   CDf =  0.00748    CDp =  0.03222
 VISCAL:  Convergence failed
 SINVRT: spline inversion failed. Input value returned.
 SINVRT: spline inversion failed. Input value returned.
 Type "!" to continue iterating

.OPERv   c>   SINVRT: spline inversion failed. Input value returned.
 SINVRT: spline inversion failed. Input value returned.

 Flap hinge x,y :  0.0000  0.0000
                                           2  2
 Hinge moment/span = -.000000  x  1/2 rho V  c 
                                           2   
 x-Force     /span = 0.000000  x  1/2 rho V  c 
                                           2   
 y-Force     /span = 0.000000  x  1/2 rho V  c 


.OPERv   c>   SINVRT: spline inversion failed. Input value returned.
 SINVRT: spline inversion failed. Input value returned.
 Calculating wake trajectory ...
 Calculating source influence matrix ...

 Solving BL system ...

 Side 1  free  transition at x/c =  0.0500   27
 Side 2  free  transition at x/c =  0.7356   47

   1   rms: 0.2200E+00   max: 0.1682E+01   T at   27  1   RLX: 0.577
       a =  3.000      CL =  1.3409
      Cm = -0.1568     CD =  0.03988   =>   CDf =  0.00737    CDp =  0.03251

 MRCHDU: Convergence failed at  27  side 1    Res =  0.1626E+02
 MRCHDU: Convergence failed at  28  side 1    Res =  0.1669E+02
 MRCHDU: Convergence failed at  29  side 1    Res =  0.1257E+02
 MRCHDU: Convergence failed at  30  side 1    Res =  0.1216E+02
 MRCHDU: Convergence failed at  31  side 1    Res =  0.1355E+02
 MRCHDU: Convergence failed at  32  side 1    Res =  0.1660E+02
 MRCHDU: Convergence failed at  33  side 1    Res =  0.2276E+02
 MRCHDU: Convergence failed at  34  side 1    Res =  0.3848E+02
 MRCHDU: Convergence failed at  35  side 1    Res =  0.2771E+02
 MRCHDU: Convergence failed at  36  side 1    Res =  0.2396E+02
 MRCHDU: Convergence failed at  37  side 1    Res =  0.2177E+02
 MRCHDU: Convergence failed at  38  side 1    Res =  0.3122E+02
 MRCHDU: Convergence failed at  39  side 1    Res =  0.4141E+02
 MRCHDU: Convergence failed at  40  side 1    Res =  0.7335E+02
 MRCHDU: Convergence failed at  41  side 1    Res =  0.7874E+02
 MRCHDU: Convergence failed at  42  side 1    Res =  0.2615E+02
 MRCHDU: Convergence failed at  43  side 1    Res =  0.2739E+02
 MRCHDU: Convergence failed at  44  side 1    Res =  0.2812E+02
 MRCHDU: Convergence failed at  45  side 1    Res =  0.3032E+02
 MRCHDU: Convergence failed at  46  side 1    Res =  0.3110E+02
 MRCHDU: Convergence failed at  47  side 1    Res =  0.3490E+02
 MRCHDU: Convergence failed at  48  side 1    Res =  0.9609E+02
 MRCHDU: Convergence failed at  49  side 1    Res =  0.2796E+02
 MRCHDU: Convergence failed at  50  side 1    Res =  0.2869E+02
 MRCHDU: Convergence failed at  51  side 1    Res =  0.2909E+02
 MRCHDU: Convergence failed at  52  side 1    Res =  0.2969E+02
 MRCHDU: Convergence failed at  53  side 1    Res =  0.2902E+02
 MRCHDU: Convergence failed at  54  side 1    Res =  0.2937E+02
 MRCHDU: Convergence failed at  55  side 1    Res =  0.2933E+02
 MRCHDU: Convergence failed at  56  side 1    Res =  0.2931E+02
 MRCHDU: Convergence failed at  57  side 1    Res =  0.2906E+02
 MRCHDU: Convergence failed at  58  side 1    Res =  0.2856E+02
 MRCHDU: Convergence failed at  59  side 1    Res =  0.2806E+02
 MRCHDU: Convergence failed at  60  side 1    Res =  0.2526E+02
 MRCHDU: Convergence failed at  61  side 1    Res =  0.2710E+02
 MRCHDU: Convergence failed at  62  side 1    Res =  0.3034E+02
 MRCHDU: Convergence failed at  63  side 1    Res =  0.4489E+03
 MRCHDU: Convergence failed at  64  side 1    Res =  0.8945E+02
 MRCHDU: Convergence failed at  65  side 1    Res =  0.6503E+02
 MRCHDU: Convergence failed at  66  side 1    Res =  0.9372E+02
 MRCHDU: Convergence failed at  67  side 1    Res =  0.3731E+02
 MRCHDU: Convergence failed at  68  side 1    Res =  0.2527E+02
 MRCHDU: Convergence failed at  69  side 1    Res =  0.3139E+02
 MRCHDU: Convergence failed at  70  side 1    Res =  0.1429E+04
 MRCHDU: Convergence failed at  71  side 1    Res =  0.2949E+02
 MRCHDU: Convergence failed at  72  side 1    Res =  0.8125E+02
 MRCHDU: Convergence failed at  73  side 1    Res =  0.2975E+02
 MRCHDU: Convergence failed at  74  side 1    Res =  0.4822E+03
 MRCHDU: Convergence failed at  75  side 1    Res =  0.4882E+02
 MRCHDU: Convergence failed at  76  side 1    Res =  0.2190E+02
 MRCHDU: Convergence failed at  77  side 1    Res =  0.3265E+02
 MRCHDU: Convergence failed at  78  side 1    Res =  0.3515E+02
 MRCHDU: Convergence failed at  79  side 1    Res =  0.4378E+02
 MRCHDU: Convergence failed at  80  side 1    Res =  0.1296E+03
 MRCHDU: Convergence failed at  81  side 1    Res =  0.1006E+04
 MRCHDU: Convergence failed at  76  side 2    Res =  0.4968E+01
 MRCHDU: Convergence failed at  77  side 2    Res =  0.1095E+01
 Side 1  free  transition at x/c =  0.0400   26
 Side 2  free  transition at x/c =  0.7451   47

   2   rms: 0.1286E+01   max: 0.4815E+01   D at   81  1   RLX: 0.312
       a =  3.000      CL =  2.6519
      Cm = -0.5901     CD =  0.02613   =>   CDf =  0.00123    CDp =  0.02490

 MRCHDU: Convergence failed at  74  side 2    Res =  0.6046E+01
 MRCHDU: Convergence failed at  75  side 2    Res =  0.3065E+01
 MRCHDU: Convergence failed at  76  side 2    Res =  0.7352E+02
 Side 1  free  transition at x/c =  0.0378   25
 Side 2  free  transition at x/c =  0.7469   47

   3   rms: 0.5616E+00   max: 0.7648E+00   D at   77  2   RLX: 0.356
       a =  3.000      CL =  1.7862
      Cm = -0.3359     CD =  0.09241   =>   CDf =  0.00193    CDp =  0.09047

 Side 1  free  transition at x/c =  0.0353   25
 Side 2  free  transition at x/c =  0.7444   47

   4   rms: 0.4152E+00   max: -.1914E+01   T at   25  1   RLX: 0.261
       a =  3.000      CL =  1.5926
      Cm = -0.2779     CD =  0.10656   =>   CDf =  0.00187    CDp =  0.10470

 Side 1  free  transition at x/c =  0.0387   26
 Side 2  free  transition at x/c =  0.7423   47

   5   rms: 0.3461E+00   max: -.9192E+00   T at   26  1   RLX: 0.544
       a =  3.000      CL =  1.3342
      Cm = -0.1838     CD =  0.08851   =>   CDf =  0.00197    CDp =  0.08654

 Side 1  free  transition at x/c =  0.0412   26
 Side 2  free  transition at x/c =  0.7435   47

   6   rms: 0.9816E+00   max: -.7006E+01   T at   26  1   RLX: 0.071
       a =  3.000      CL =  1.2335
      Cm = -0.1615     CD =  0.09954   =>   CDf =  0.00208    CDp =  0.09746

 Side 1  free  transition at x/c =  0.0458   27
 Side 2  free  transition at x/c =  0.7430   47

   7   rms: 0.5647E+00   max: -.2518E+01   D at   45  1   RLX: 0.199
       a =  3.000      CL =  1.1719
      Cm = -0.1491     CD =  0.08956   =>   CDf =  0.00230    CDp =  0.08727

 Side 1  free  transition at x/c =  0.0480   27
 Side 2  free  transition at x/c =  0.7434   47
 idif Ue xi dudx           1  0.12284894      3.57663631E-03   34.347618    
 Uenew xinew           2  4.54495632E-04  1.32322311E-05

   8   rms: 0.7014E+00   max: -.3691E+01   T at   27  1   RLX: 0.135
       a =  3.000      CL =  1.1856
      Cm = -0.1580     CD =  0.09430   =>   CDf =  0.00281    CDp =  0.09149

 Side 1  free  transition at x/c =  0.0541   27
 Side 2  free  transition at x/c =  0.7423   48

   9   rms: 0.1800E+01   max: 0.2712E+02   T at    2  2   RLX: 0.042
       a =  3.000      CL =  1.1834
      Cm = -0.1504     CD =  0.09207   =>   CDf =  0.00292    CDp =  0.08916

 Side 1  free  transition at x/c =  0.0537   27
 Side 2  free  transition at x/c =  0.7437   47

  10   rms: 0.3816E+01   max: -.2856E+02   T at   27  1   RLX: 0.018
       a =  3.000      CL =  1.1700
      Cm = -0.1516     CD =  0.09502   =>   CDf =  0.00339    CDp =  0.09163
 VISCAL:  Convergence failed
 SINVRT: spline inversion failed. Input value returned.
 SINVRT: spline inversion failed. Input value returned.
 Type "!" to continue iterating

.OPERv   c>   SINVRT: spline inversion failed. Input value returned.
 SINVRT: spline inversion failed. Input value returned.

 Flap hinge x,y :  0.0000  0.0000
                                           2  2
 Hinge moment/span = 0.015852  x  1/2 rho V  c 
                                           2   
 x-Force     /span = 0.003312  x  1/2 rho V  c 
                                           2   
 y-Force     /span = 0.032235  x  1/2 rho V  c 


.OPERv   c>   SINVRT: spline inversion failed. Input value returned.
 SINVRT: spline inversion failed. Input value returned.
 Calculating wake trajectory ...
 Calculating source influence matrix ...

 Solving BL system ...

 MRCHDU: Convergence failed at  28  side 1    Res =  0.2361E+01
 MRCHDU: Convergence failed at  29  side 1    Res =  0.3201E+01
 MRCHDU: Convergence failed at  30  side 1    Res =  0.1899E+01
 MRCHDU: Convergence failed at  31  side 1    Res =  0.1282E+02
 MRCHDU: Convergence failed at  32  side 1    Res =  0.6196E+01
 MRCHDU: Convergence failed at  33  side 1    Res =  0.3779E+01
 MRCHDU: Convergence failed at  34  side 1    Res =  0.3676E+01
 MRCHDU: Convergence failed at  35  side 1    Res =  0.4240E+01
 MRCHDU: Convergence failed at  36  side 1    Res =  0.4884E+02
 MRCHDU: Convergence failed at  37  side 1    Res =  0.2898E+02
 MRCHDU: Convergence failed at  38  side 1    Res =  0.5868E+02
 MRCHDU: Convergence failed at  39  side 1    Res =  0.1090E+03
 MRCHDU: Convergence failed at  40  side 1    Res =  0.5531E+02
 MRCHDU: Convergence failed at  41  side 1    Res =  0.2689E+03
 MRCHDU: Convergence failed at  42  side 1    Res =  0.3194E+02
 MRCHDU: Convergence failed at  43  side 1    Res =  0.8639E+02
 MRCHDU: Convergence failed at  44  side 1    Res =  0.2363E+02
 MRCHDU: Convergence failed at  45  side 1    Res =  0.3678E+01
 MRCHDU: Convergence failed at  46  side 1    Res =  0.3201E+01
 MRCHDU: Convergence failed at  47  side 1    Res =  0.4870E+01
 MRCHDU: Convergence failed at  48  side 1    Res =  0.6478E+01
 MRCHDU: Convergence failed at  49  side 1    Res =  0.7061E+01
 MRCHDU: Convergence failed at  50  side 1    Res =  0.9322E+01
 MRCHDU: Convergence failed at  51  side 1    Res =  0.1633E+02
 MRCHDU: Convergence failed at  52  side 1    Res =  0.5553E+02
 MRCHDU: Convergence failed at  53  side 1    Res =  0.4469E+02
 MRCHDU: Convergence failed at  54  side 1    Res =  0.1960E+02
 MRCHDU: Convergence failed at  55  side 1    Res =  0.9383E+01
 MRCHDU: Convergence failed at  56  side 1    Res =  0.7825E+01
 MRCHDU: Convergence failed at  57  side 1    Res =  0.2856E+02
 MRCHDU: Convergence failed at  58  side 1    Res =  0.3669E+02
 MRCHDU: Convergence failed at  59  side 1    Res =  0.5074E+02
 MRCHDU: Convergence failed at  60  side 1    Res =  0.7956E+02
 MRCHDU: Convergence failed at  61  side 1    Res =  0.1703E+03
 MRCHDU: Convergence failed at  62  side 1    Res =  0.5972E+03
 MRCHDU: Convergence failed at  63  side 1    Res =  0.4888E+03
 MRCHDU: Convergence failed at  64  side 1    Res =  0.5071E+02
 MRCHDU: Convergence failed at  65  side 1    Res =  0.4819E+02
 MRCHDU: Convergence failed at  66  side 1    Res =  0.2671E+03
 MRCHDU: Convergence failed at  67  side 1    Res =  0.4244E+02
 MRCHDU: Convergence failed at  68  side 1    Res =  0.1056E+04
 MRCHDU: Convergence failed at  69  side 1    Res =  0.4755E+02
 MRCHDU: Convergence failed at  70  side 1    Res =  0.2429E+02
 MRCHDU: Convergence failed at  71  side 1    Res =  0.5210E+02
 MRCHDU: Convergence failed at  72  side 1    Res =  0.1866E+03
 MRCHDU: Convergence failed at  73  side 1    Res =  0.3273E+02
 MRCHDU: Convergence failed at  74  side 1    Res =  0.1218E+02
 MRCHDU: Convergence failed at  75  side 1    Res =  0.1154E+02
 MRCHDU: Convergence failed at  76  side 1    Res =  0.1717E+02
 MRCHDU: Convergence failed at  77  side 1    Res =  0.1637E+02
 MRCHDU: Convergence failed at  78  side 1    Res =  0.5613E+02
 MRCHDU: Convergence failed at  79  side 1    Res =  0.3779E+02
 MRCHDU: Convergence failed at  80  side 1    Res =  0.5242E+02
 MRCHDU: Convergence failed at  81  side 1    Res =  0.8537E+02
 MRCHDU: Convergence failed at  77  side 2    Res =  0.3943E+01
 MRCHDU: Convergence failed at  78  side 2    Res =  0.1760E+01
 MRCHDU: Convergence failed at  79  side 2    Res =  0.3074E+01
 Side 1  free  transition at x/c =  0.0635   28
 Side 2  free  transition at x/c =  0.7429   47

   1   rms: 0.3101E+01   max: -.1758E+02   C at   28  1   RLX: 0.028
       a =  4.000      CL =  3.0566
      Cm = -0.7196     CD =  0.01911   =>   CDf =  0.00138    CDp =  0.01773

 MRCHDU: Convergence failed at  31  side 1    Res =  0.1746E-01
 MRCHDU: Convergence failed at  56  side 1    Res =  0.5014E-01
 Side 1  free  transition at x/c =  0.0571   28
 Side 2  free  transition at x/c =  0.7442   47

   2   rms: 0.7510E+00   max: -.1117E+01   T at   47  2   RLX: 0.250
       a =  4.000      CL =  2.4180
      Cm = -0.4927     CD =  0.03917   =>   CDf =  0.01457    CDp =  0.02460

 MRCHDU: Convergence failed at  28  side 1    Res =  0.2087E+01
 Side 1  free  transition at x/c =  0.0501   27
 Side 2  free  transition at x/c =  0.7527   47

   3   rms: 0.6282E+00   max: 0.3841E+01   T at   27  1   RLX: 0.299
       a =  4.000      CL =  2.0940
      Cm = -0.3707     CD =  0.04156   =>   CDf =  0.01215    CDp =  0.02941

 MRCHDU: Convergence failed at  27  side 1    Res =  0.2017E+02
 Side 1  free  transition at x/c =  0.0390   26
 Side 2  free  transition at x/c =  0.7648   48

   4   rms: 0.4598E+00   max: 0.7097E+00   D at   48  2   RLX: 0.409
       a =  4.000      CL =  1.7751
      Cm = -0.2662     CD =  0.04420   =>   CDf =  0.00922    CDp =  0.03499

 Side 1  free  transition at x/c =  0.0355   26
 Side 2  free  transition at x/c =  0.7680   47

   5   rms: 0.3267E+00   max: -.1332E+01   D at   52  1   RLX: 0.375
       a =  4.000      CL =  1.6416
      Cm = -0.2181     CD =  0.04386   =>   CDf =  0.00800    CDp =  0.03586

 MRCHDU: Convergence failed at  49  side 1    Res =  0.5392E+00
 MRCHDU: Convergence failed at  50  side 1    Res =  0.6108E-01
 Side 1  free  transition at x/c =  0.0317   25
 Side 2  free  transition at x/c =  0.7713   47

   6   rms: 0.5546E+00   max: 0.4402E+01   T at   25  1   RLX: 0.172
       a =  4.000      CL =  1.6392
      Cm = -0.2063     CD =  0.04859   =>   CDf =  0.00798    CDp =  0.04061

 Side 1  free  transition at x/c =  0.0280   25
 Side 2  free  transition at x/c =  0.7724   47

   7   rms: 0.2598E+00   max: -.1107E+01   D at   30  1   RLX: 0.452
       a =  4.000      CL =  1.5578
      Cm = -0.1802     CD =  0.04911   =>   CDf =  0.00693    CDp =  0.04218

 Side 1  free  transition at x/c =  0.0275   25
 Side 2  free  transition at x/c =  0.7762   48

   8   rms: 0.1871E+00   max: -.9336E+00   D at   30  1   RLX: 0.536
       a =  4.000      CL =  1.5020
      Cm = -0.1597     CD =  0.04720   =>   CDf =  0.00671    CDp =  0.04049

 Side 1  free  transition at x/c =  0.0268   26
 Side 2  free  transition at x/c =  0.7775   47

   9   rms: 0.1514E+00   max: 0.7933E+00   T at   26  1   RLX: 0.732
       a =  4.000      CL =  1.5214
      Cm = -0.1585     CD =  0.04718   =>   CDf =  0.00692    CDp =  0.04026

 MRCHDU: Convergence failed at  26  side 1    Res =  0.9079E+01
 MRCHDU: Convergence failed at  27  side 1    Res =  0.1061E+02
 MRCHDU: Convergence failed at  28  side 1    Res =  0.3520E+02
 MRCHDU: Convergence failed at  29  side 1    Res =  0.1885E+02
 MRCHDU: Convergence failed at  30  side 1    Res =  0.1896E+02
 MRCHDU: Convergence failed at  31  side 1    Res =  0.5138E+02
 MRCHDU: Convergence failed at  32  side 1    Res =  0.5566E+02
 MRCHDU: Convergence failed at  33  side 1    Res =  0.1008E+03
 MRCHDU: Convergence failed at  34  side 1    Res =  0.2376E+02
 MRCHDU: Convergence failed at  35  side 1    Res =  0.3763E+02
 MRCHDU: Convergence failed at  36  side 1    Res =  0.7912E+02
 MRCHDU: Convergence failed at  37  side 1    Res =  0.3328E+02
 MRCHDU: Convergence failed at  38  side 1    Res =  0.3688E+02
 MRCHDU: Convergence failed at  39  side 1    Res =  0.3059E+02
 MRCHDU: Convergence failed at  40  side 1    Res =  0.3432E+02
 MRCHDU: Convergence failed at  41  side 1    Res =  0.3861E+02
 MRCHDU: Convergence failed at  42  side 1    Res =  0.3325E+02
 MRCHDU: Convergence failed at  43  side 1    Res =  0.3699E+02
 MRCHDU: Convergence failed at  44  side 1    Res =  0.4025E+02
 MRCHDU: Convergence failed at  45  side 1    Res =  0.4327E+02
 MRCHDU: Convergence failed at  46  side 1    Res =  0.3077E+02
 MRCHDU: Convergence failed at  47  side 1    Res =  0.3194E+02
 MRCHDU: Convergence failed at  48  side 1    Res =  0.3278E+02
 MRCHDU: Convergence failed at  49  side 1    Res =  0.2420E+02
 MRCHDU: Convergence failed at  50  side 1    Res =  0.2399E+02
 MRCHDU: Convergence failed at  51  side 1    Res =  0.3792E+02
 MRCHDU: Convergence failed at  52  side 1    Res =  0.3037E+02
 MRCHDU: Convergence failed at  53  side 1    Res =  0.3102E+02
 MRCHDU: Convergence failed at  54  side 1    Res =  0.3172E+02
 MRCHDU: Convergence failed at  55  side 1    Res =  0.3248E+02
 MRCHDU: Convergence failed at  56  side 1    Res =  0.3348E+02
 MRCHDU: Convergence failed at  57  side 1    Res =  0.5943E+03
 MRCHDU: Convergence failed at  58  side 1    Res =  0.2617E+02
 MRCHDU: Convergence failed at  59  side 1    Res =  0.2968E+02
 MRCHDU: Convergence failed at  60  side 1    Res =  0.3141E+02
 MRCHDU: Convergence failed at  61  side 1    Res =  0.3245E+02
 MRCHDU: Convergence failed at  62  side 1    Res =  0.3282E+02
 MRCHDU: Convergence failed at  63  side 1    Res =  0.3288E+02
 MRCHDU: Convergence failed at  64  side 1    Res =  0.3248E+02
 MRCHDU: Convergence failed at  65  side 1    Res =  0.3164E+02
 MRCHDU: Convergence failed at  66  side 1    Res =  0.3037E+02
 MRCHDU: Convergence failed at  67  side 1    Res =  0.2808E+02
 MRCHDU: Convergence failed at  68  side 1    Res =  0.2603E+02
 MRCHDU: Convergence failed at  69  side 1    Res =  0.2682E+02
 MRCHDU: Convergence failed at  70  side 1    Res =  0.7190E+02
 MRCHDU: Convergence failed at  71  side 1    Res =  0.4787E+02
 MRCHDU: Convergence failed at  72  side 1    Res =  0.1486E+03
 MRCHDU: Convergence failed at  73  side 1    Res =  0.2341E+03
 MRCHDU: Convergence failed at  74  side 1    Res =  0.5443E+03
 MRCHDU: Convergence failed at  75  side 1    Res =  0.7391E+03
 MRCHDU: Convergence failed at  76  side 1    Res =  0.9794E+03
 MRCHDU: Convergence failed at  77  side 1    Res =  0.1003E+04
 MRCHDU: Convergence failed at  78  side 1    Res =  0.7170E+03
 MRCHDU: Convergence failed at  79  side 1    Res =  0.4951E+03
 MRCHDU: Convergence failed at  80  side 1    Res =  0.3142E+03
 MRCHDU: Convergence failed at  81  side 1    Res =  0.2144E+03
 MRCHDU: Convergence failed at  82  side 1    Res =  0.1615E+03
 MRCHDU: Convergence failed at  83  side 1    Res =  0.1117E+03
 MRCHDU: Convergence failed at  72  side 2    Res =  0.6030E+01
 MRCHDU: Convergence failed at  73  side 2    Res =  0.6293E+01
 MRCHDU: Convergence failed at  74  side 2    Res =  0.3434E+01
 MRCHDU: Convergence failed at  75  side 2    Res =  0.1164E+01
 Side 1  free  transition at x/c =  0.0252   25
 Side 2  free  transition at x/c =  0.7804   47

  10   rms: 0.2329E+01   max: 0.1067E+02   D at   69  2   RLX: 0.141
       a =  4.000      CL =  4.5706
      Cm = -1.0819     CD =  0.01207   =>   CDf =  0.00055    CDp =  0.01153
 VISCAL:  Convergence failed
 SINVRT: spline inversion failed. Input value returned.
 SINVRT: spline inversion failed. Input value returned.
 Type "!" to continue iterating

.OPERv   c>   SINVRT: spline inversion failed. Input value returned.
 SINVRT: spline inversion failed. Input value returned.

 Flap hinge x,y :  0.0000  0.0000
                                           2  2
 Hinge moment/span = 1.882259  x  1/2 rho V  c 
                                           2   
 x-Force     /span = 0.393332  x  1/2 rho V  c 
                                           2   
 y-Force     /span = 3.827681  x  1/2 rho V  c 


.OPERv   c>   SINVRT: spline inversion failed. Input value returned.
 SINVRT: spline inversion failed. Input value returned.
 Calculating wake trajectory ...
 Calculating source influence matrix ...

 Solving BL system ...

 MRCHDU: Convergence failed at  69  side 2    Res =  0.3576E+01
 MRCHDU: Convergence failed at  70  side 2    Res =  0.1666E+03
 Side 1  free  transition at x/c =  0.0252   25
 Side 2  free  transition at x/c =  0.7805   47

   1   rms: 0.8860E+00   max: 0.2411E+01   D at   75  2   RLX: 0.286
       a =  5.000      CL =  2.9731
      Cm = -0.6327     CD =  0.07752   =>   CDf =  0.00169    CDp =  0.07584

 Side 1  free  transition at x/c =  0.0291   26
 Side 2  free  transition at x/c =  0.7910   47

   2   rms: 0.8216E+00   max: 0.9253E+01   T at   26  1   RLX: 0.162
       a =  5.000      CL =  2.6752
      Cm = -0.5475     CD =  0.09697   =>   CDf =  0.00143    CDp =  0.09554

 Side 1  free  transition at x/c =  0.0258   25
 Side 2  free  transition at x/c =  0.7908   47
 idif Ue xi dudx           1  0.13057460      5.66780567E-03   23.037945    
 Uenew xinew           2  2.81664319E-02  1.22261047E-03

   3   rms: 0.6402E+00   max: 0.1385E+01   T at   47  2   RLX: 0.363
       a =  5.000      CL =  2.2139
      Cm = -0.4104     CD =  0.11512   =>   CDf =  0.00180    CDp =  0.11332

 Side 1  free  transition at x/c =  0.0266   25
 Side 2  free  transition at x/c =  0.7822   48

   4   rms: 0.4359E+00   max: 0.5833E+00   T at   48  2   RLX: 0.507
       a =  5.000      CL =  1.6367
      Cm = -0.2618     CD =  0.11842   =>   CDf =  0.00158    CDp =  0.11684

 Side 1  free  transition at x/c =  0.0268   25
 Side 2  free  transition at x/c =  0.7739   48

   5   rms: 0.6147E+00   max: -.1761E+01   D at   29  1   RLX: 0.284
       a =  5.000      CL =  1.4307
      Cm = -0.1863     CD =  0.10994   =>   CDf =  0.00176    CDp =  0.10818

 Side 1  free  transition at x/c =  0.0265   25
 Side 2  free  transition at x/c =  0.7777   48

   6   rms: 0.3701E+00   max: 0.1780E+01   D at   25  1   RLX: 0.434
       a =  5.000      CL =  1.3376
      Cm = -0.1299     CD =  0.07070   =>   CDf =  0.00390    CDp =  0.06680

 Side 1  free  transition at x/c =  0.0255   24
 Side 2  free  transition at x/c =  0.7819   48

   7   rms: 0.3521E+00   max: 0.1215E+01   T at   24  1   RLX: 0.636
       a =  5.000      CL =  1.5151
      Cm = -0.1413     CD =  0.05232   =>   CDf =  0.00507    CDp =  0.04726

 MRCHDU: Convergence failed at  71  side 1    Res =  0.6007E+00
 MRCHDU: Convergence failed at  72  side 1    Res =  0.5573E+00
 MRCHDU: Convergence failed at  73  side 1    Res =  0.1037E+01
 MRCHDU: Convergence failed at  75  side 1    Res =  0.1339E+03
 MRCHDU: Convergence failed at  76  side 1    Res =  0.1823E+01
 MRCHDU: Convergence failed at  77  side 1    Res =  0.1088E+01
 MRCHDU: Convergence failed at  78  side 1    Res =  0.2216E+01
 MRCHDU: Convergence failed at  80  side 1    Res =  0.7049E+00
 Side 1  free  transition at x/c =  0.0222   25
 Side 2  free  transition at x/c =  0.7930   47

   8   rms: 0.8607E+00   max: 0.2861E+01   T at   25  1   RLX: 0.191
       a =  5.000      CL =  1.6494
      Cm = -0.1961     CD =  0.04589   =>   CDf =  0.00440    CDp =  0.04149

 Side 1  free  transition at x/c =  0.0216   25
 Side 2  free  transition at x/c =  0.8004   47

   9   rms: 0.6411E+00   max: 0.3198E+01   T at   25  1   RLX: 0.253
       a =  5.000      CL =  1.7902
      Cm = -0.2073     CD =  0.04937   =>   CDf =  0.00552    CDp =  0.04385

 Side 1  free  transition at x/c =  0.0200   25
 Side 2  free  transition at x/c =  0.8079   48

  10   rms: 0.5077E+00   max: -.1583E+01   D at   43  1   RLX: 0.316
       a =  5.000      CL =  1.7566
      Cm = -0.1931     CD =  0.04259   =>   CDf =  0.00382    CDp =  0.03877
 VISCAL:  Convergence failed
 SINVRT: spline inversion failed. Input value returned.
 SINVRT: spline inversion failed. Input value returned.
 Type "!" to continue iterating

.OPERv   c>   SINVRT: spline inversion failed. Input value returned.
 SINVRT: spline inversion failed. Input value returned.

 Flap hinge x,y :  0.0000  0.0000
                                           2  2
 Hinge moment/span = 0.086956  x  1/2 rho V  c 
                                           2   
 x-Force     /span = 0.018171  x  1/2 rho V  c 
                                           2   
 y-Force     /span = 0.176829  x  1/2 rho V  c 


.OPERv   c>   SINVRT: spline inversion failed. Input value returned.
 SINVRT: spline inversion failed. Input value returned.

 Solving BL system ...

 Side 1  free  transition at x/c =  0.0199   25
 Side 2  free  transition at x/c =  0.8082   48

   1   rms: 0.3039E+00   max: 0.1075E+01   D at   74  1   RLX: 0.841
       a =  5.000      CL =  1.8083
      Cm = -0.1887     CD =  0.06242   =>   CDf =  0.00440    CDp =  0.05802

 MRCHDU: Convergence failed at  79  side 1    Res =  0.1863E+01
 MRCHDU: Convergence failed at  80  side 1    Res =  0.2385E+01
 MRCHDU: Convergence failed at  81  side 1    Res =  0.3646E+01
 MRCHDU: Convergence failed at  82  side 1    Res =  0.5854E+01
 MRCHDU: Convergence failed at  83  side 1    Res =  0.2466E+02
 MRCHDU: Convergence failed at  84  side 1    Res =  0.7927E+01
 MRCHDU: Convergence failed at  85  side 1    Res =  0.2911E+01
 Side 1  free  transition at x/c =  0.0202   26
 Side 2  free  transition at x/c =  0.8106   47
 idif Ue xi dudx           1  0.13746478      7.82132149E-03   17.575645    
 Uenew xinew           2  3.66761312E-02  2.08675861E-03

   2   rms: 0.1861E+00   max: 0.7621E+00   D at   68  2   RLX: 0.814
       a =  5.000      CL =  1.6814
      Cm = -0.1689     CD =  0.05871   =>   CDf =  0.00474    CDp =  0.05397

 Side 1  free  transition at x/c =  0.0204   25
 Side 2  free  transition at x/c =  0.8045   47

   3   rms: 0.1332E+00   max: -.3739E+00   D at   33  1
       a =  5.000      CL =  1.5774
      Cm = -0.1468     CD =  0.05343   =>   CDf =  0.00427    CDp =  0.04917

 Side 1  free  transition at x/c =  0.0211   25
 Side 2  free  transition at x/c =  0.8011   47

   4   rms: 0.4440E-01   max: 0.2147E+00   D at   25  1
       a =  5.000      CL =  1.5778
      Cm = -0.1477     CD =  0.05769   =>   CDf =  0.00544    CDp =  0.05225

 Side 1  free  transition at x/c =  0.0210   25
 Side 2  free  transition at x/c =  0.8000   47

   5   rms: 0.5358E-02   max: 0.2187E-01   D at   78  1
       a =  5.000      CL =  1.5745
      Cm = -0.1472     CD =  0.05747   =>   CDf =  0.00518    CDp =  0.05229

 Side 1  free  transition at x/c =  0.0210   25
 Side 2  free  transition at x/c =  0.7998   47

   6   rms: 0.1699E-03   max: 0.1375E-02   D at   74  2
       a =  5.000      CL =  1.5744
      Cm = -0.1472     CD =  0.05746   =>   CDf =  0.00516    CDp =  0.05230

 Side 1  free  transition at x/c =  0.0210   25
 Side 2  free  transition at x/c =  0.7998   47

   7   rms: 0.6401E-05   max: 0.1758E-04   T at   78  1
       a =  5.000      CL =  1.5744
      Cm = -0.1472     CD =  0.05746   =>   CDf =  0.00516    CDp =  0.05230
 SINVRT: spline inversion failed. Input value returned.
 SINVRT: spline inversion failed. Input value returned.
 SINVRT: spline inversion failed. Input value returned.
 SINVRT: spline inversion failed. Input value returned.
 Calculating wake trajectory ...
 Calculating source influence matrix ...

 Solving BL system ...

 Side 1  free  transition at x/c =  0.0210   25
 Side 2  free  transition at x/c =  0.7998   47

   1   rms: 0.9187E-01   max: 0.3919E+00   D at   72  1   RLX: 0.558
       a =  5.500      CL =  1.5712
      Cm = -0.1419     CD =  0.06149   =>   CDf =  0.00517    CDp =  0.05631

 Side 1  free  transition at x/c =  0.0207   25
 Side 2  free  transition at x/c =  0.8039   47

   2   rms: 0.4369E-01   max: 0.1991E+00   D at   72  1
       a =  5.500      CL =  1.5573
      Cm = -0.1367     CD =  0.06544   =>   CDf =  0.00463    CDp =  0.06080

 Side 1  free  transition at x/c =  0.0207   25
 Side 2  free  transition at x/c =  0.8059   48

   3   rms: 0.5955E-02   max: 0.5780E-01   D at   47  2
       a =  5.500      CL =  1.5534
      Cm = -0.1363     CD =  0.06534   =>   CDf =  0.00423    CDp =  0.06111

 Side 1  free  transition at x/c =  0.0207   25
 Side 2  free  transition at x/c =  0.8059   48

   4   rms: 0.1423E-03   max: 0.1370E-02   D at   48  2
       a =  5.500      CL =  1.5534
      Cm = -0.1363     CD =  0.06534   =>   CDf =  0.00427    CDp =  0.06108

 Side 1  free  transition at x/c =  0.0207   25
 Side 2  free  transition at x/c =  0.8059   48

   5   rms: 0.3881E-05   max: 0.2748E-04   T at   48  2
       a =  5.500      CL =  1.5534
      Cm = -0.1363     CD =  0.06534   =>   CDf =  0.00427    CDp =  0.06108
 SINVRT: spline inversion failed. Input value returned.
 SINVRT: spline inversion failed. Input value returned.
 SINVRT: spline inversion failed. Input value returned.
 SINVRT: spline inversion failed. Input value returned.
 Calculating wake trajectory ...
 Calculating source influence matrix ...

 Solving BL system ...

 Side 1  free  transition at x/c =  0.0207   25
 Side 2  free  transition at x/c =  0.8059   48

   1   rms: 0.9379E-01   max: 0.4515E+00   D at   72  1   RLX: 0.501
       a =  6.000      CL =  1.5372
      Cm = -0.1306     CD =  0.06979   =>   CDf =  0.00427    CDp =  0.06551

 Side 1  free  transition at x/c =  0.0207   25
 Side 2  free  transition at x/c =  0.8082   48

   2   rms: 0.4565E-01   max: 0.2148E+00   D at   72  1
       a =  6.000      CL =  1.5136
      Cm = -0.1249     CD =  0.07456   =>   CDf =  0.00383    CDp =  0.07073

 Side 1  free  transition at x/c =  0.0207   25
 Side 2  free  transition at x/c =  0.8103   48

   3   rms: 0.4990E-02   max: 0.3149E-01   D at   76  1
       a =  6.000      CL =  1.5109
      Cm = -0.1248     CD =  0.07434   =>   CDf =  0.00346    CDp =  0.07088

 Side 1  free  transition at x/c =  0.0207   25
 Side 2  free  transition at x/c =  0.8101   48

   4   rms: 0.1944E-03   max: -.9738E-03   T at   48  2
       a =  6.000      CL =  1.5109
      Cm = -0.1248     CD =  0.07437   =>   CDf =  0.00351    CDp =  0.07087

 Side 1  free  transition at x/c =  0.0207   25
 Side 2  free  transition at x/c =  0.8101   48

   5   rms: 0.6190E-05   max: 0.2820E-04   D at   75  2
       a =  6.000      CL =  1.5109
      Cm = -0.1248     CD =  0.07437   =>   CDf =  0.00350    CDp =  0.07087
 SINVRT: spline inversion failed. Input value returned.
 SINVRT: spline inversion failed. Input value returned.
 SINVRT: spline inversion failed. Input value returned.
 SINVRT: spline inversion failed. Input value returned.
 Calculating wake trajectory ...
 Calculating source influence matrix ...

 Solving BL system ...

 Side 1  free  transition at x/c =  0.0207   25
 Side 2  free  transition at x/c =  0.8101   48

   1   rms: 0.9301E-01   max: 0.4612E+00   D at   72  1   RLX: 0.451
       a =  6.500      CL =  1.4888
      Cm = -0.1202     CD =  0.07912   =>   CDf =  0.00351    CDp =  0.07561

 Side 1  free  transition at x/c =  0.0208   25
 Side 2  free  transition at x/c =  0.8120   48

   2   rms: 0.4999E-01   max: 0.2180E+00   D at   72  1
       a =  6.500      CL =  1.4584
      Cm = -0.1154     CD =  0.08524   =>   CDf =  0.00318    CDp =  0.08206

 Side 1  free  transition at x/c =  0.0209   25
 Side 2  free  transition at x/c =  0.8138   49

   3   rms: 0.1157E-01   max: 0.8669E-01   D at   52  2
       a =  6.500      CL =  1.4567
      Cm = -0.1157     CD =  0.08475   =>   CDf =  0.00285    CDp =  0.08190

 Side 1  free  transition at x/c =  0.0209   25
 Side 2  free  transition at x/c =  0.8134   49

   4   rms: 0.3809E-03   max: -.2344E-02   T at   49  2
       a =  6.500      CL =  1.4568
      Cm = -0.1157     CD =  0.08478   =>   CDf =  0.00288    CDp =  0.08190

 Side 1  free  transition at x/c =  0.0209   25
 Side 2  free  transition at x/c =  0.8134   49

   5   rms: 0.2009E-04   max: 0.1426E-03   T at   49  2
       a =  6.500      CL =  1.4568
      Cm = -0.1157     CD =  0.08477   =>   CDf =  0.00288    CDp =  0.08190
 SINVRT: spline inversion failed. Input value returned.
 SINVRT: spline inversion failed. Input value returned.
 SINVRT: spline inversion failed. Input value returned.
 SINVRT: spline inversion failed. Input value returned.
 Calculating wake trajectory ...
 Calculating source influence matrix ...

 Solving BL system ...

 Side 1  free  transition at x/c =  0.0209   25
 Side 2  free  transition at x/c =  0.8134   49

   1   rms: 0.9357E-01   max: 0.4310E+00   D at   72  1   RLX: 0.409
       a =  7.000      CL =  1.4341
      Cm = -0.1130     CD =  0.08987   =>   CDf =  0.00289    CDp =  0.08698

 Side 1  free  transition at x/c =  0.0210   25
 Side 2  free  transition at x/c =  0.8145   49

   2   rms: 0.5341E-01   max: 0.2077E+00   D at   71  1
       a =  7.000      CL =  1.3997
      Cm = -0.1109     CD =  0.09750   =>   CDf =  0.00263    CDp =  0.09487

 Side 1  free  transition at x/c =  0.0211   25
 Side 2  free  transition at x/c =  0.8161   49

   3   rms: 0.7841E-02   max: 0.6561E-01   D at   73  1
       a =  7.000      CL =  1.3985
      Cm = -0.1116     CD =  0.09673   =>   CDf =  0.00234    CDp =  0.09439

 Side 1  free  transition at x/c =  0.0211   25
 Side 2  free  transition at x/c =  0.8159   49

   4   rms: 0.1213E-02   max: 0.4091E-02   D at   56  1
       a =  7.000      CL =  1.3988
      Cm = -0.1117     CD =  0.09695   =>   CDf =  0.00239    CDp =  0.09456

 Side 1  free  transition at x/c =  0.0211   25
 Side 2  free  transition at x/c =  0.8159   49

   5   rms: 0.1741E-03   max: -.5818E-03   D at   60  1
       a =  7.000      CL =  1.3987
      Cm = -0.1117     CD =  0.09692   =>   CDf =  0.00238    CDp =  0.09454

 Side 1  free  transition at x/c =  0.0211   25
 Side 2  free  transition at x/c =  0.8159   49

   6   rms: 0.1522E-04   max: 0.4866E-04   D at   33  1
       a =  7.000      CL =  1.3987
      Cm = -0.1117     CD =  0.09693   =>   CDf =  0.00238    CDp =  0.09454
 SINVRT: spline inversion failed. Input value returned.
 SINVRT: spline inversion failed. Input value returned.
 SINVRT: spline inversion failed. Input value returned.
 SINVRT: spline inversion failed. Input value returned.
 Calculating wake trajectory ...
 Calculating source influence matrix ...

 Solving BL system ...

 Side 1  free  transition at x/c =  0.0211   25
 Side 2  free  transition at x/c =  0.8159   49

   1   rms: 0.1015E+00   max: 0.4068E+00   D at   70  1   RLX: 0.375
       a =  7.500      CL =  1.3777
      Cm = -0.1120     CD =  0.10310   =>   CDf =  0.00239    CDp =  0.10070

 Side 1  free  transition at x/c =  0.0212   25
 Side 2  free  transition at x/c =  0.8169   50
 idif Ue xi dudx           1  9.83810052E-02  5.10478020E-03   19.272329    
 Uenew xinew           2  1.50482368E-03  7.80820847E-05

   2   rms: 0.7141E-01   max: 0.2763E+00   D at   70  1
       a =  7.500      CL =  1.3451
      Cm = -0.1168     CD =  0.11518   =>   CDf =  0.00263    CDp =  0.11255

 Side 1  free  transition at x/c =  0.0215   24
 Side 2  free  transition at x/c =  0.8178   51

   3   rms: 0.2137E-01   max: -.1831E+00   T at    2  2
       a =  7.500      CL =  1.3436
      Cm = -0.1197     CD =  0.11481   =>   CDf =  0.00199    CDp =  0.11282

 Side 1  free  transition at x/c =  0.0215   24
 Side 2  free  transition at x/c =  0.8175   51

   4   rms: 0.3710E-02   max: 0.1876E-01   D at   61  1
       a =  7.500      CL =  1.3445
      Cm = -0.1202     CD =  0.11483   =>   CDf =  0.00199    CDp =  0.11284

 Side 1  free  transition at x/c =  0.0215   24
 Side 2  free  transition at x/c =  0.8176   51

   5   rms: 0.5132E-03   max: 0.2294E-02   D at   51  2
       a =  7.500      CL =  1.3444
      Cm = -0.1202     CD =  0.11471   =>   CDf =  0.00198    CDp =  0.11273

 Side 1  free  transition at x/c =  0.0215   24
 Side 2  free  transition at x/c =  0.8176   51

   6   rms: 0.6092E-04   max: 0.2063E-03   D at   37  1
       a =  7.500      CL =  1.3444
      Cm = -0.1202     CD =  0.11471   =>   CDf =  0.00198    CDp =  0.11273
 SINVRT: spline inversion failed. Input value returned.
 SINVRT: spline inversion failed. Input value returned.
 SINVRT: spline inversion failed. Input value returned.
 SINVRT: spline inversion failed. Input value returned.
 Calculating wake trajectory ...
 Calculating source influence matrix ...

 Solving BL system ...

 Side 1  free  transition at x/c =  0.0215   24
 Side 2  free  transition at x/c =  0.8176   51

   1   rms: 0.1763E+00   max: 0.5957E+00   D at   58  1   RLX: 0.350
       a =  8.000      CL =  1.3287
      Cm = -0.1294     CD =  0.12689   =>   CDf =  0.00199    CDp =  0.12490

 Side 1  free  transition at x/c =  0.0217   24
 Side 2  free  transition at x/c =  0.8177   51

   2   rms: 0.1243E+00   max: 0.4445E+00   D at   50  1
       a =  8.000      CL =  1.3071
      Cm = -0.1466     CD =  0.15013   =>   CDf =  0.00189    CDp =  0.14824

 Side 1  free  transition at x/c =  0.0221   25
 Side 2  free  transition at x/c =  0.8190   51

   3   rms: 0.4799E+00   max: 0.1511E+01   D at   49  1   RLX: 0.680
       a =  8.000      CL =  1.4082
      Cm = -0.1000     CD =  0.10228   =>   CDf =  0.00268    CDp =  0.09959

 Side 1  free  transition at x/c =  0.0226   26
 Side 2  free  transition at x/c =  0.8267   51

   4   rms: 0.4674E+00   max: 0.1804E+01   D at   53  1   RLX: 0.832
       a =  8.000      CL =  1.4744
      Cm = -0.1119     CD =  0.12011   =>   CDf =  0.00367    CDp =  0.11643

 MRCHDU: Convergence failed at  36  side 1    Res =  0.2840E+01
 MRCHDU: Convergence failed at  37  side 1    Res =  0.1680E+01
 MRCHDU: Convergence failed at  38  side 1    Res =  0.1424E+01
 MRCHDU: Convergence failed at  39  side 1    Res =  0.1547E+01
 MRCHDU: Convergence failed at  40  side 1    Res =  0.1719E+01
 MRCHDU: Convergence failed at  41  side 1    Res =  0.1924E+01
 MRCHDU: Convergence failed at  42  side 1    Res =  0.2149E+01
 MRCHDU: Convergence failed at  43  side 1    Res =  0.2394E+01
 MRCHDU: Convergence failed at  44  side 1    Res =  0.2657E+01
 MRCHDU: Convergence failed at  45  side 1    Res =  0.2967E+01
 MRCHDU: Convergence failed at  46  side 1    Res =  0.3422E+01
 MRCHDU: Convergence failed at  47  side 1    Res =  0.3812E+01
 MRCHDU: Convergence failed at  48  side 1    Res =  0.4138E+01
 MRCHDU: Convergence failed at  49  side 1    Res =  0.4510E+01
 MRCHDU: Convergence failed at  50  side 1    Res =  0.5118E+01
 MRCHDU: Convergence failed at  51  side 1    Res =  0.5798E+01
 MRCHDU: Convergence failed at  52  side 1    Res =  0.7121E+01
 MRCHDU: Convergence failed at  53  side 1    Res =  0.1112E+02
 MRCHDU: Convergence failed at  54  side 1    Res =  0.7985E+01
 MRCHDU: Convergence failed at  55  side 1    Res =  0.1152E+02
 MRCHDU: Convergence failed at  56  side 1    Res =  0.1411E+02
 MRCHDU: Convergence failed at  57  side 1    Res =  0.1712E+02
 MRCHDU: Convergence failed at  58  side 1    Res =  0.2069E+02
 MRCHDU: Convergence failed at  59  side 1    Res =  0.2913E+02
 MRCHDU: Convergence failed at  60  side 1    Res =  0.3751E+02
 MRCHDU: Convergence failed at  61  side 1    Res =  0.5048E+02
 MRCHDU: Convergence failed at  62  side 1    Res =  0.1163E+03
 MRCHDU: Convergence failed at  63  side 1    Res =  0.1562E+03
 MRCHDU: Convergence failed at  64  side 1    Res =  0.8540E+02
 MRCHDU: Convergence failed at  65  side 1    Res =  0.5969E+02
 MRCHDU: Convergence failed at  66  side 1    Res =  0.4600E+02
 MRCHDU: Convergence failed at  67  side 1    Res =  0.3145E+02
 MRCHDU: Convergence failed at  68  side 1    Res =  0.2698E+02
 MRCHDU: Convergence failed at  69  side 1    Res =  0.2224E+02
 MRCHDU: Convergence failed at  70  side 1    Res =  0.1935E+02
 MRCHDU: Convergence failed at  71  side 1    Res =  0.1511E+02
 MRCHDU: Convergence failed at  72  side 1    Res =  0.1256E+02
 MRCHDU: Convergence failed at  73  side 1    Res =  0.7229E+01
 MRCHDU: Convergence failed at  74  side 1    Res =  0.1000E+02
 MRCHDU: Convergence failed at  75  side 1    Res =  0.2180E+02
 MRCHDU: Convergence failed at  76  side 1    Res =  0.4225E+03
 MRCHDU: Convergence failed at  77  side 1    Res =  0.2776E+02
 MRCHDU: Convergence failed at  78  side 1    Res =  0.1529E+02
 MRCHDU: Convergence failed at  79  side 1    Res =  0.1062E+02
 MRCHDU: Convergence failed at  80  side 1    Res =  0.9545E+01
 MRCHDU: Convergence failed at  81  side 1    Res =  0.6498E+01
 MRCHDU: Convergence failed at  82  side 1    Res =  0.6806E+01
 MRCHDU: Convergence failed at  83  side 1    Res =  0.7329E+01
 MRCHDU: Convergence failed at  84  side 1    Res =  0.7806E+01
 Side 1  free  transition at x/c =  0.0268   27
 Side 2  free  transition at x/c =  0.8302   51

   5   rms: 0.7253E+00   max: 0.2818E+01   D at   84  1   RLX: 0.532
       a =  8.000      CL =  2.1477
      Cm = -0.3429     CD =  0.07626   =>   CDf =  0.00157    CDp =  0.07470

 Side 1  free  transition at x/c =  0.0254   27
 Side 2  free  transition at x/c =  0.8377   50

   6   rms: 0.1025E+02   max: 0.1775E+03   T at   27  1   RLX: 0.006
       a =  8.000      CL =  2.1657
      Cm = -0.3323     CD =  0.03849   =>   CDf =  0.00735    CDp =  0.03114

 Side 1  free  transition at x/c =  0.0241   27
 Side 2  free  transition at x/c =  0.8380   50

   7   rms: 0.4939E+01   max: -.4324E+02   T at   27  1   RLX: 0.012
       a =  8.000      CL =  2.1689
      Cm = -0.3320     CD =  0.03319   =>   CDf =  0.00867    CDp =  0.02452

 Side 1  free  transition at x/c =  0.0275   28
 Side 2  free  transition at x/c =  0.8385   50

   8   rms: 0.1259E+01   max: 0.3548E+01   D at   31  1   RLX: 0.172
       a =  8.000      CL =  2.2486
      Cm = -0.3202     CD =  0.03751   =>   CDf =  0.00843    CDp =  0.02908

 MRCHDU: Convergence failed at  33  side 1    Res =  0.1166E+02
 MRCHDU: Convergence failed at  34  side 1    Res =  0.1363E+02
 MRCHDU: Convergence failed at  35  side 1    Res =  0.1880E+03
 MRCHDU: Convergence failed at  36  side 1    Res =  0.2107E+03
 MRCHDU: Convergence failed at  37  side 1    Res =  0.2717E+03
 MRCHDU: Convergence failed at  38  side 1    Res =  0.1187E+03
 MRCHDU: Convergence failed at  39  side 1    Res =  0.6628E+02
 MRCHDU: Convergence failed at  40  side 1    Res =  0.1132E+03
 MRCHDU: Convergence failed at  41  side 1    Res =  0.1302E+03
 MRCHDU: Convergence failed at  42  side 1    Res =  0.6293E+02
 MRCHDU: Convergence failed at  43  side 1    Res =  0.1381E+03
 MRCHDU: Convergence failed at  44  side 1    Res =  0.2761E+03
 MRCHDU: Convergence failed at  45  side 1    Res =  0.2135E+03
 MRCHDU: Convergence failed at  46  side 1    Res =  0.1373E+03
 MRCHDU: Convergence failed at  47  side 1    Res =  0.9215E+02
 MRCHDU: Convergence failed at  48  side 1    Res =  0.4184E+02
 MRCHDU: Convergence failed at  49  side 1    Res =  0.4333E+02
 MRCHDU: Convergence failed at  50  side 1    Res =  0.4533E+02
 MRCHDU: Convergence failed at  51  side 1    Res =  0.4855E+02
 MRCHDU: Convergence failed at  52  side 1    Res =  0.5142E+02
 MRCHDU: Convergence failed at  53  side 1    Res =  0.5482E+02
 MRCHDU: Convergence failed at  54  side 1    Res =  0.5849E+02
 MRCHDU: Convergence failed at  55  side 1    Res =  0.3665E+02
 MRCHDU: Convergence failed at  56  side 1    Res =  0.2762E+02
 MRCHDU: Convergence failed at  57  side 1    Res =  0.2815E+02
 MRCHDU: Convergence failed at  58  side 1    Res =  0.2871E+02
 MRCHDU: Convergence failed at  59  side 1    Res =  0.2923E+02
 MRCHDU: Convergence failed at  60  side 1    Res =  0.2969E+02
 MRCHDU: Convergence failed at  61  side 1    Res =  0.3012E+02
 MRCHDU: Convergence failed at  62  side 1    Res =  0.3009E+02
 MRCHDU: Convergence failed at  63  side 1    Res =  0.3081E+02
 MRCHDU: Convergence failed at  64  side 1    Res =  0.3063E+02
 MRCHDU: Convergence failed at  65  side 1    Res =  0.3068E+02
 MRCHDU: Convergence failed at  66  side 1    Res =  0.2176E+02
 MRCHDU: Convergence failed at  67  side 1    Res =  0.2183E+02
 MRCHDU: Convergence failed at  68  side 1    Res =  0.2188E+02
 MRCHDU: Convergence failed at  69  side 1    Res =  0.2186E+02
 MRCHDU: Convergence failed at  70  side 1    Res =  0.2171E+02
 MRCHDU: Convergence failed at  71  side 1    Res =  0.2140E+02
 MRCHDU: Convergence failed at  72  side 1    Res =  0.2080E+02
 MRCHDU: Convergence failed at  73  side 1    Res =  0.1949E+02
 MRCHDU: Convergence failed at  74  side 1    Res =  0.7744E+02
 MRCHDU: Convergence failed at  75  side 1    Res =  0.2375E+02
 MRCHDU: Convergence failed at  76  side 1    Res =  0.3639E+02
 MRCHDU: Convergence failed at  77  side 1    Res =  0.3250E+02
 MRCHDU: Convergence failed at  78  side 1    Res =  0.3632E+02
 MRCHDU: Convergence failed at  79  side 1    Res =  0.4051E+02
 MRCHDU: Convergence failed at  80  side 1    Res =  0.4537E+02
 MRCHDU: Convergence failed at  81  side 1    Res =  0.4210E+02
 MRCHDU: Convergence failed at  82  side 1    Res =  0.1613E+03
 MRCHDU: Convergence failed at  83  side 1    Res =  0.1500E+04
 MRCHDU: Convergence failed at  84  side 1    Res =  0.3481E+03
 MRCHDU: Convergence failed at  85  side 1    Res =  0.2068E+03
 MRCHDU: Convergence failed at  86  side 1    Res =  0.1260E+03
 Side 1  free  transition at x/c =  0.0538   32
 Side 2  free  transition at x/c =  0.8476   50

   9   rms: 0.3642E+01   max: 0.2900E+02   D at   61  2   RLX: 0.052
       a =  8.000      CL =  6.4192
      Cm = -1.5485     CD =  0.00663   =>   CDf = -0.00026    CDp =  0.00689

 MRCHDU: Convergence failed at  44  side 1    Res =  0.4399E+00
 MRCHDU: Convergence failed at  45  side 1    Res =  0.3886E+00
 MRCHDU: Convergence failed at  46  side 1    Res =  0.2805E+00
 MRCHDU: Convergence failed at  47  side 1    Res =  0.1560E+00
 MRCHDU: Convergence failed at  61  side 2    Res =  0.1217E+02
 MRCHDU: Convergence failed at  63  side 2    Res =  0.5365E+01
 MRCHDU: Convergence failed at  64  side 2    Res =  0.9212E+01
 MRCHDU: Convergence failed at  65  side 2    Res =  0.4297E+01
 MRCHDU: Convergence failed at  66  side 2    Res =  0.2824E+02
 MRCHDU: Convergence failed at  67  side 2    Res =  0.1440E+02
 MRCHDU: Convergence failed at  68  side 2    Res =  0.1091E+02
 MRCHDU: Convergence failed at  69  side 2    Res =  0.1012E+02
 MRCHDU: Convergence failed at  70  side 2    Res =  0.1056E+02
 MRCHDU: Convergence failed at  71  side 2    Res =  0.1140E+02
 MRCHDU: Convergence failed at  72  side 2    Res =  0.4162E+01
 MRCHDU: Convergence failed at  73  side 2    Res =  0.1527E+03
 MRCHDU: Convergence failed at  74  side 2    Res =  0.2131E+02
 MRCHDU: Convergence failed at  75  side 2    Res =  0.8772E+01
 MRCHDU: Convergence failed at  76  side 2    Res =  0.2392E+01
 MRCHDU: Convergence failed at  77  side 2    Res =  0.1621E+01
 Side 1  free  transition at x/c =  0.0573   33
 Side 2  free  transition at x/c =  0.8494   50

  10   rms: 0.1269E+01   max: -.3560E+01   D at   78  2   RLX: 0.109
       a =  8.000      CL =  4.7737
      Cm = -1.0656     CD =  0.07339   =>   CDf =  0.00208    CDp =  0.07131

 MRCHDU: Convergence failed at  48  side 1    Res =  0.3723E-02
 MRCHDU: Convergence failed at  49  side 1    Res =  0.1735E-03
 Side 1  free  transition at x/c =  0.0547   33
 Side 2  free  transition at x/c =  0.8472   50
 idif Ue xi dudx           1  9.63336378E-02  6.66093826E-03   14.462473    
 Uenew xinew           2  1.01547199E-03  7.02142715E-05

  11   rms: 0.1254E+01   max: 0.1773E+01   D at   75  2   RLX: 0.153
       a =  8.000      CL =  4.1679
      Cm = -0.8810     CD =  0.10392   =>   CDf =  0.00248    CDp =  0.10144

 Side 1  free  transition at x/c =  0.0538   31
 Side 2  free  transition at x/c =  0.8433   50

  12   rms: 0.1932E+01   max: -.1848E+02   T at    2  2   RLX: 0.027
       a =  8.000      CL =  4.1088
      Cm = -0.8491     CD =  0.11626   =>   CDf =  0.00176    CDp =  0.11450

 MRCHDU: Convergence failed at  47  side 1    Res =  0.1297E+00
 MRCHDU: Convergence failed at  48  side 1    Res =  0.7029E+00
 MRCHDU: Convergence failed at  49  side 1    Res =  0.9040E-01
 Side 1  free  transition at x/c =  0.0561   32
 Side 2  free  transition at x/c =  0.8427   50

  13   rms: 0.4103E+01   max: 0.4480E+02   T at   32  1   RLX: 0.033
       a =  8.000      CL =  3.6634
      Cm = -0.6864     CD =  0.11368   =>   CDf =  0.00190    CDp =  0.11178

 Side 1  free  transition at x/c =  0.0416   30
 Side 2  free  transition at x/c =  0.8421   50

  14   rms: 0.9734E+00   max: 0.4574E+01   T at   30  1   RLX: 0.238
       a =  8.000      CL =  3.0965
      Cm = -0.5179     CD =  0.12370   =>   CDf =  0.00142    CDp =  0.12228

 Side 1  free  transition at x/c =  0.0369   29
 Side 2  free  transition at x/c =  0.8375   50
 idif Ue xi dudx           1  0.14245954      8.47446918E-03   16.810438    
 Uenew xinew           2  4.60590273E-02  2.73990631E-03

  15   rms: 0.1049E+01   max: 0.1477E+01   D at   77  2   RLX: 0.229
       a =  8.000      CL =  2.6335
      Cm = -0.4597     CD =  0.15135   =>   CDf =  0.00158    CDp =  0.14977
 VISCAL:  Convergence failed
 SINVRT: spline inversion failed. Input value returned.
 SINVRT: spline inversion failed. Input value returned.
 SINVRT: spline inversion failed. Input value returned.
 SINVRT: spline inversion failed. Input value returned.
 Calculating wake trajectory ...
 Calculating source influence matrix ...

 Solving BL system ...

 Side 1  free  transition at x/c =  0.0355   28
 Side 2  free  transition at x/c =  0.8277   51
 idif Ue xi dudx           1  0.13103105      7.08162785E-03   18.502956    
 Uenew xinew           2  3.80222760E-02  2.05492973E-03

   1   rms: 0.7685E+00   max: 0.1605E+01   T at   51  2   RLX: 0.303
       a =  8.500      CL =  2.0917
      Cm = -0.3494     CD =  0.17082   =>   CDf =  0.00169    CDp =  0.16913

 Side 1  free  transition at x/c =  0.0361   27
 Side 2  free  transition at x/c =  0.8208   51
 idif Ue xi dudx           1  0.14934053      7.09974766E-03   21.034624    
 Uenew xinew           2  5.58375120E-02  2.65455246E-03

   2   rms: 0.5122E+00   max: 0.1143E+01   D at   47  1   RLX: 0.543
       a =  8.500      CL =  1.5674
      Cm = -0.2570     CD =  0.19558   =>   CDf =  0.00182    CDp =  0.19376

 Side 1  free  transition at x/c =  0.0372   26
 Side 2  free  transition at x/c =  0.8100   50
 idif Ue xi dudx           1  0.13107729      5.31840324E-03   24.645985    
 Uenew xinew           2  3.33877765E-02  1.35469437E-03

   3   rms: 0.1938E+00   max: 0.5726E+00   T at   50  2
       a =  8.500      CL =  1.1855
      Cm = -0.1810     CD =  0.20110   =>   CDf =  0.00196    CDp =  0.19914

 Side 1  free  transition at x/c =  0.0453   26
 Side 2  free  transition at x/c =  0.8024   50

   4   rms: 0.6755E-01   max: 0.6221E+00   T at   26  1
       a =  8.500      CL =  1.1989
      Cm = -0.1837     CD =  0.21188   =>   CDf =  0.00182    CDp =  0.21006

 Side 1  free  transition at x/c =  0.0381   26
 Side 2  free  transition at x/c =  0.8022   50

   5   rms: 0.2792E+00   max: -.1354E+01   T at   26  1   RLX: 0.369
       a =  8.500      CL =  1.2791
      Cm = -0.2239     CD =  0.21871   =>   CDf =  0.00184    CDp =  0.21687

 Side 1  free  transition at x/c =  0.0383   26
 Side 2  free  transition at x/c =  0.7983   50

   6   rms: 0.1481E+00   max: -.7761E+00   D at   26  1   RLX: 0.644
       a =  8.500      CL =  1.2076
      Cm = -0.2097     CD =  0.20948   =>   CDf =  0.00189    CDp =  0.20760

 Side 1  free  transition at x/c =  0.0388   26
 Side 2  free  transition at x/c =  0.7967   50

   7   rms: 0.9433E-01   max: -.7027E+00   D at   26  1   RLX: 0.711
       a =  8.500      CL =  1.1750
      Cm = -0.1965     CD =  0.20881   =>   CDf =  0.00191    CDp =  0.20690

 Side 1  free  transition at x/c =  0.0394   26
 Side 2  free  transition at x/c =  0.7978   50

   8   rms: 0.7024E-01   max: -.4500E+00   D at   26  1
       a =  8.500      CL =  1.1787
      Cm = -0.1868     CD =  0.20255   =>   CDf =  0.00189    CDp =  0.20065

 Side 1  free  transition at x/c =  0.0398   26
 Side 2  free  transition at x/c =  0.7992   50

   9   rms: 0.3049E-01   max: -.8864E-01   T at   50  2
       a =  8.500      CL =  1.1910
      Cm = -0.1849     CD =  0.20661   =>   CDf =  0.00186    CDp =  0.20475

 Side 1  free  transition at x/c =  0.0397   26
 Side 2  free  transition at x/c =  0.8013   50

  10   rms: 0.1996E-02   max: -.1089E-01   D at   82  2
       a =  8.500      CL =  1.1921
      Cm = -0.1849     CD =  0.20764   =>   CDf =  0.00184    CDp =  0.20580

 Side 1  free  transition at x/c =  0.0397   26
 Side 2  free  transition at x/c =  0.8014   50

  11   rms: 0.3903E-04   max: 0.3615E-03   D at   55  2
       a =  8.500      CL =  1.1921
      Cm = -0.1849     CD =  0.20768   =>   CDf =  0.00184    CDp =  0.20584
 SINVRT: spline inversion failed. Input value returned.
 SINVRT: spline inversion failed. Input value returned.
 SINVRT: spline inversion failed. Input value returned.
 SINVRT: spline inversion failed. Input value returned.
 Calculating wake trajectory ...
 Calculating source influence matrix ...

 Solving BL system ...

 Side 1  free  transition at x/c =  0.0397   26
 Side 2  free  transition at x/c =  0.8014   50

   1   rms: 0.5722E-01   max: 0.5128E+00   T at   26  1   RLX: 0.307
       a =  9.000      CL =  1.1957
      Cm = -0.1853     CD =  0.21018   =>   CDf =  0.00184    CDp =  0.20834

 Side 1  free  transition at x/c =  0.0391   26
 Side 2  free  transition at x/c =  0.8041   50

   2   rms: 0.5173E-01   max: -.3689E+00   T at   50  2
       a =  9.000      CL =  1.2097
      Cm = -0.1847     CD =  0.21322   =>   CDf =  0.00183    CDp =  0.21139

 Side 1  free  transition at x/c =  0.0382   26
 Side 2  free  transition at x/c =  0.8104   51

   3   rms: 0.6266E-01   max: -.2677E+00   T at   26  1
       a =  9.000      CL =  1.2009
      Cm = -0.1862     CD =  0.20786   =>   CDf =  0.00184    CDp =  0.20602

 Side 1  free  transition at x/c =  0.0384   26
 Side 2  free  transition at x/c =  0.8095   51

   4   rms: 0.2958E-01   max: -.1125E+00   D at   26  1
       a =  9.000      CL =  1.2071
      Cm = -0.1842     CD =  0.20942   =>   CDf =  0.00184    CDp =  0.20758

 Side 1  free  transition at x/c =  0.0384   26
 Side 2  free  transition at x/c =  0.8106   51

   5   rms: 0.1016E-01   max: 0.4307E-01   T at   26  1
       a =  9.000      CL =  1.2109
      Cm = -0.1835     CD =  0.21241   =>   CDf =  0.00182    CDp =  0.21059

 Side 1  free  transition at x/c =  0.0384   26
 Side 2  free  transition at x/c =  0.8110   51

   6   rms: 0.9888E-03   max: 0.1178E-01   T at   51  2
       a =  9.000      CL =  1.2109
      Cm = -0.1835     CD =  0.21263   =>   CDf =  0.00182    CDp =  0.21082

 Side 1  free  transition at x/c =  0.0384   26
 Side 2  free  transition at x/c =  0.8108   51

   7   rms: 0.2151E-03   max: 0.8453E-03   T at   26  1
       a =  9.000      CL =  1.2109
      Cm = -0.1835     CD =  0.21268   =>   CDf =  0.00182    CDp =  0.21086

 Side 1  free  transition at x/c =  0.0384   26
 Side 2  free  transition at x/c =  0.8108   51

   8   rms: 0.2122E-04   max: 0.1956E-03   T at   51  2
       a =  9.000      CL =  1.2109
      Cm = -0.1835     CD =  0.21269   =>   CDf =  0.00182    CDp =  0.21087
 SINVRT: spline inversion failed. Input value returned.
 SINVRT: spline inversion failed. Input value returned.
 SINVRT: spline inversion failed. Input value returned.
 SINVRT: spline inversion failed. Input value returned.
 Calculating wake trajectory ...
 Calculating source influence matrix ...

 Solving BL system ...

 Side 1  free  transition at x/c =  0.0384   26
 Side 2  free  transition at x/c =  0.8108   51

   1   rms: 0.1236E+00   max: -.7364E+00   T at   51  2   RLX: 0.302
       a =  9.500      CL =  1.2158
      Cm = -0.1818     CD =  0.21365   =>   CDf =  0.00157    CDp =  0.21208

 Side 1  free  transition at x/c =  0.0381   27
 Side 2  free  transition at x/c =  0.8139   51

   2   rms: 0.2313E+00   max: 0.1312E+01   T at   27  1   RLX: 0.809
       a =  9.500      CL =  1.2324
      Cm = -0.1698     CD =  0.21633   =>   CDf =  0.00181    CDp =  0.21452

 MRCHDU: Convergence failed at  80  side 2    Res =  0.3890E-03
 Side 1  free  transition at x/c =  0.0374   26
 Side 2  free  transition at x/c =  0.8201   52

   3   rms: 0.1482E+01   max: 0.5638E+01   D at   28  1   RLX: 0.184
       a =  9.500      CL =  1.3164
      Cm = -0.1410     CD =  0.06028   =>   CDf =  0.00683    CDp =  0.05346

 Side 1  free  transition at x/c =  0.0378   27
 Side 2  free  transition at x/c =  0.8294   52

   4   rms: 0.1883E+01   max: 0.5344E+01   D at   34  1   RLX: 0.180
       a =  9.500      CL =  1.4934
      Cm = -0.1444     CD =  0.08817   =>   CDf =  0.00500    CDp =  0.08318

 MRCHDU: Convergence failed at  34  side 1    Res =  0.2042E+01
 MRCHDU: Convergence failed at  35  side 1    Res =  0.4342E+02
 MRCHDU: Convergence failed at  36  side 1    Res =  0.5978E+01
 MRCHDU: Convergence failed at  37  side 1    Res =  0.4052E+01
 MRCHDU: Convergence failed at  38  side 1    Res =  0.3693E+01
 MRCHDU: Convergence failed at  39  side 1    Res =  0.3761E+01
 MRCHDU: Convergence failed at  40  side 1    Res =  0.3863E+01
 MRCHDU: Convergence failed at  41  side 1    Res =  0.4207E+01
 MRCHDU: Convergence failed at  42  side 1    Res =  0.4624E+01
 MRCHDU: Convergence failed at  43  side 1    Res =  0.5087E+01
 MRCHDU: Convergence failed at  44  side 1    Res =  0.5830E+01
 MRCHDU: Convergence failed at  45  side 1    Res =  0.6396E+01
 MRCHDU: Convergence failed at  46  side 1    Res =  0.6999E+01
 MRCHDU: Convergence failed at  47  side 1    Res =  0.7624E+01
 MRCHDU: Convergence failed at  48  side 1    Res =  0.8273E+01
 MRCHDU: Convergence failed at  49  side 1    Res =  0.8952E+01
 MRCHDU: Convergence failed at  50  side 1    Res =  0.9641E+01
 MRCHDU: Convergence failed at  51  side 1    Res =  0.1036E+02
 MRCHDU: Convergence failed at  52  side 1    Res =  0.1106E+02
 MRCHDU: Convergence failed at  53  side 1    Res =  0.1172E+02
 MRCHDU: Convergence failed at  54  side 1    Res =  0.1473E+02
 MRCHDU: Convergence failed at  55  side 1    Res =  0.1562E+02
 MRCHDU: Convergence failed at  56  side 1    Res =  0.1647E+02
 MRCHDU: Convergence failed at  57  side 1    Res =  0.1994E+02
 MRCHDU: Convergence failed at  58  side 1    Res =  0.2061E+02
 MRCHDU: Convergence failed at  59  side 1    Res =  0.2147E+02
 MRCHDU: Convergence failed at  60  side 1    Res =  0.2202E+02
[...]
 MRCHDU: Convergence failed at  75  side 2    Res =  0.1697E+01
 MRCHDU: Convergence failed at  76  side 2    Res =  0.2052E+01
 MRCHDU: Convergence failed at  77  side 2    Res =  0.8776E+01
 MRCHDU: Convergence failed at  78  side 2    Res =  0.2501E+01
 MRCHDU: Convergence failed at  79  side 2    Res =  0.2635E+01
 MRCHDU: Convergence failed at  80  side 2    Res =  0.3002E+01
 MRCHDU: Convergence failed at  81  side 2    Res =  0.3249E+01
 MRCHDU: Convergence failed at  82  side 2    Res =  0.1939E+01
 Side 1  free  transition at x/c =  0.0452   25
 Side 2  free  transition at x/c =  0.7540   48

   3   rms: 0.2604E+01   max: 0.1050E+02   D at   80  1   RLX: 0.120
       a =  4.500      CL =  2.3249
      Cm = -0.5444     CD =  0.01935   =>   CDf =  0.00155    CDp =  0.01780

 MRCHDU: Convergence failed at  73  side 2    Res =  0.2290E+03
 MRCHDU: Convergence failed at  74  side 2    Res =  0.2072E+02
 MRCHDU: Convergence failed at  75  side 2    Res =  0.3498E+01
 Side 1  free  transition at x/c =  0.0404   25
 Side 2  free  transition at x/c =  0.7587   49

   4   rms: 0.3477E+00   max: 0.1419E+01   D at   76  2   RLX: 0.415
       a =  4.500      CL =  1.3575
      Cm = -0.2467     CD =  0.13214   =>   CDf =  0.00202    CDp =  0.13012

 Side 1  free  transition at x/c =  0.0403   25
 Side 2  free  transition at x/c =  0.7593   49

   5   rms: 0.2875E+00   max: -.7272E+00   D at   32  1   RLX: 0.688
       a =  4.500      CL =  1.1535
      Cm = -0.1741     CD =  0.11430   =>   CDf =  0.00204    CDp =  0.11227

 Side 1  free  transition at x/c =  0.0409   25
 Side 2  free  transition at x/c =  0.7566   49

   6   rms: 0.9424E+01   max: -.2422E+02   D at   28  1   RLX: 0.021
       a =  4.500      CL =  1.0531
      Cm = -0.1104     CD =  0.13656   =>   CDf =  0.00172    CDp =  0.13483

 Side 1  free  transition at x/c =  0.0402   26
 Side 2  free  transition at x/c =  0.7637   48

   7   rms: 0.1016E+01   max: -.4015E+01   D at   28  1   RLX: 0.125
       a =  4.500      CL =  1.0312
      Cm = -0.0763     CD =  0.10417   =>   CDf =  0.00302    CDp =  0.10116

 Side 1  free  transition at x/c =  0.0374   25
 Side 2  free  transition at x/c =  0.7698   48

   8   rms: 0.6405E+00   max: 0.4447E+01   T at   25  1   RLX: 0.164
       a =  4.500      CL =  1.1214
      Cm = -0.0822     CD =  0.09495   =>   CDf =  0.00287    CDp =  0.09208

 Side 1  free  transition at x/c =  0.0316   25
 Side 2  free  transition at x/c =  0.7735   47

   9   rms: 0.7544E+00   max: 0.5230E+01   T at   25  1   RLX: 0.132
       a =  4.500      CL =  1.1857
      Cm = -0.0842     CD =  0.08416   =>   CDf =  0.00353    CDp =  0.08063

 Side 1  free  transition at x/c =  0.0286   25
 Side 2  free  transition at x/c =  0.7795   48

  10   rms: 0.9129E+00   max: -.3194E+01   D at   61  1   RLX: 0.157
       a =  4.500      CL =  1.2558
      Cm = -0.0823     CD =  0.06661   =>   CDf =  0.00300    CDp =  0.06361

 Side 1  free  transition at x/c =  0.0268   25
 Side 2  free  transition at x/c =  0.7819   48

  11   rms: 0.6940E+00   max: -.2524E+01   D at   70  1   RLX: 0.198
       a =  4.500      CL =  1.3497
      Cm = -0.0962     CD =  0.06030   =>   CDf =  0.00304    CDp =  0.05726

 MRCHDU: Convergence failed at  26  side 1    Res =  0.3514E+01
 MRCHDU: Convergence failed at  27  side 1    Res =  0.7471E+01
 MRCHDU: Convergence failed at  28  side 1    Res =  0.4134E+02
 MRCHDU: Convergence failed at  29  side 1    Res =  0.1022E+02
 MRCHDU: Convergence failed at  30  side 1    Res =  0.4116E+02
 MRCHDU: Convergence failed at  31  side 1    Res =  0.3978E+02
 MRCHDU: Convergence failed at  32  side 1    Res =  0.5703E+02
 MRCHDU: Convergence failed at  33  side 1    Res =  0.7004E+02
 MRCHDU: Convergence failed at  34  side 1    Res =  0.8815E+02
 MRCHDU: Convergence failed at  35  side 1    Res =  0.3364E+02
 MRCHDU: Convergence failed at  36  side 1    Res =  0.2979E+02
 MRCHDU: Convergence failed at  37  side 1    Res =  0.3927E+02
 MRCHDU: Convergence failed at  38  side 1    Res =  0.4746E+02
 MRCHDU: Convergence failed at  39  side 1    Res =  0.3194E+02
 MRCHDU: Convergence failed at  40  side 1    Res =  0.3279E+02
 MRCHDU: Convergence failed at  41  side 1    Res =  0.3291E+02
 MRCHDU: Convergence failed at  42  side 1    Res =  0.4413E+02
 MRCHDU: Convergence failed at  43  side 1    Res =  0.2270E+02
 MRCHDU: Convergence failed at  44  side 1    Res =  0.5610E+02
 MRCHDU: Convergence failed at  45  side 1    Res =  0.4340E+02
 MRCHDU: Convergence failed at  46  side 1    Res =  0.2525E+02
 MRCHDU: Convergence failed at  47  side 1    Res =  0.6046E+02
 MRCHDU: Convergence failed at  48  side 1    Res =  0.6472E+02
 MRCHDU: Convergence failed at  49  side 1    Res =  0.1905E+03
 MRCHDU: Convergence failed at  50  side 1    Res =  0.3069E+04
 MRCHDU: Convergence failed at  51  side 1    Res =  0.2624E+05
 MRCHDU: Convergence failed at  52  side 1    Res =  0.1511E+03
 MRCHDU: Convergence failed at  53  side 1    Res =  0.1656E+03
 MRCHDU: Convergence failed at  54  side 1    Res =  0.1868E+03
 MRCHDU: Convergence failed at  55  side 1    Res =  0.2205E+03
 MRCHDU: Convergence failed at  56  side 1    Res =  0.2691E+03
 MRCHDU: Convergence failed at  57  side 1    Res =  0.3406E+03
 MRCHDU: Convergence failed at  58  side 1    Res =  0.4592E+03
 MRCHDU: Convergence failed at  59  side 1    Res =  0.6784E+03
 MRCHDU: Convergence failed at  60  side 1    Res =  0.1081E+04
 MRCHDU: Convergence failed at  61  side 1    Res =  0.1881E+03
 MRCHDU: Convergence failed at  62  side 1    Res =  0.2160E+03
 MRCHDU: Convergence failed at  63  side 1    Res =  0.2519E+03
 MRCHDU: Convergence failed at  64  side 1    Res =  0.2988E+03
 MRCHDU: Convergence failed at  65  side 1    Res =  0.3638E+03
 MRCHDU: Convergence failed at  66  side 1    Res =  0.4597E+03
 MRCHDU: Convergence failed at  67  side 1    Res =  0.6165E+03
 MRCHDU: Convergence failed at  68  side 1    Res =  0.9349E+03
 MRCHDU: Convergence failed at  69  side 1    Res =  0.1961E+04
 MRCHDU: Convergence failed at  70  side 1    Res =  0.5537E+04
 MRCHDU: Convergence failed at  71  side 1    Res =  0.1134E+03
 MRCHDU: Convergence failed at  72  side 1    Res =  0.7260E+03
 MRCHDU: Convergence failed at  73  side 1    Res =  0.7000E+05
 MRCHDU: Convergence failed at  74  side 1    Res =  0.2145E+04
 MRCHDU: Convergence failed at  75  side 1    Res =  0.2233E+04
 MRCHDU: Convergence failed at  76  side 1    Res =  0.1160E+05
 MRCHDU: Convergence failed at  77  side 1    Res =  0.4692E+04
 MRCHDU: Convergence failed at  78  side 1    Res =  0.1443E+04
 MRCHDU: Convergence failed at  79  side 1    Res =  0.7239E+03
 MRCHDU: Convergence failed at  80  side 1    Res =  0.4253E+03
 MRCHDU: Convergence failed at  81  side 1    Res =  0.2724E+03
 MRCHDU: Convergence failed at  82  side 1    Res =  0.7142E+03
 MRCHDU: Convergence failed at  83  side 1    Res =  0.1301E+03
 MRCHDU: Convergence failed at  73  side 2    Res =  0.5589E+02
 MRCHDU: Convergence failed at  74  side 2    Res =  0.1594E+02
 MRCHDU: Convergence failed at  75  side 2    Res =  0.2451E+01
 MRCHDU: Convergence failed at  76  side 2    Res =  0.6278E+01
 Side 1  free  transition at x/c =  0.0257   25
 Side 2  free  transition at x/c =  0.7845   47
 idif Ue xi dudx           1  0.10980003      4.59551811E-03   23.892851    
 Uenew xinew           2  3.59164295E-03  1.50322914E-04

  12   rms: 0.2461E+01   max: 0.9651E+01   D at   71  2   RLX: 0.155
       a =  4.500      CL =  4.4693
      Cm = -1.0559     CD =  0.01709   =>   CDf =  0.00100    CDp =  0.01609

 MRCHDU: Convergence failed at  72  side 2    Res =  0.1331E+02
 Side 1  free  transition at x/c =  0.0258   24
 Side 2  free  transition at x/c =  0.7837   48

  13   rms: 0.8117E+00   max: -.2261E+01   T at    2  2   RLX: 0.153
       a =  4.500      CL =  2.6591
      Cm = -0.5320     CD =  0.12380   =>   CDf =  0.00156    CDp =  0.12224

 Side 1  free  transition at x/c =  0.0280   25
 Side 2  free  transition at x/c =  0.7836   48
 idif Ue xi dudx           1  0.13141635      5.01525402E-03   26.203329    
 Uenew xinew           2  2.75539830E-02  1.05154514E-03

  14   rms: 0.8312E+00   max: 0.1559E+01   T at   48  2   RLX: 0.313
       a =  4.500      CL =  2.0725
      Cm = -0.3964     CD =  0.14306   =>   CDf =  0.00200    CDp =  0.14106

 Side 1  free  transition at x/c =  0.0311   24
 Side 2  free  transition at x/c =  0.7702   48

  15   rms: 0.1108E+01   max: 0.3453E+01   T at   25  1   RLX: 0.112
       a =  4.500      CL =  1.9304
      Cm = -0.3499     CD =  0.15605   =>   CDf =  0.00150    CDp =  0.15456
 VISCAL:  Convergence failed
 SINVRT: spline inversion failed. Input value returned.
 SINVRT: spline inversion failed. Input value returned.
 SINVRT: spline inversion failed. Input value returned.
 SINVRT: spline inversion failed. Input value returned.
 Calculating wake trajectory ...
 Calculating source influence matrix ...

 Solving BL system ...

 Side 1  free  transition at x/c =  0.0359   26
 Side 2  free  transition at x/c =  0.7748   48

   1   rms: 0.5092E+00   max: 0.1847E+01   D at    2  1   RLX: 0.322
       a =  5.000      CL =  1.5440
      Cm = -0.2217     CD =  0.12532   =>   CDf =  0.00184    CDp =  0.12348

 Side 1  free  transition at x/c =  0.0369   26
 Side 2  free  transition at x/c =  0.7747   48
 idif Ue xi dudx           2  0.20282048      7.53831863E-03   26.905268    
 Uenew xinew           3  9.61758345E-02  3.57460976E-03

   2   rms: 0.3545E+01   max: 0.1232E+02   D at   29  1   RLX: 0.084
       a =  5.000      CL =  1.3013
      Cm = -0.2037     CD =  0.19255   =>   CDf =  0.00248    CDp =  0.19007

 Side 1  free  transition at x/c =  0.0399   25
 Side 2  free  transition at x/c =  0.7655   49

   3   rms: 0.4147E+02   max: 0.6898E+03   T at    2  2   RLX: 0.002
       a =  5.000      CL =  1.1235
      Cm = -0.1529     CD =  0.17274   =>   CDf =  0.00171    CDp =  0.17103

 Side 1  free  transition at x/c =  0.0399   26
 Side 2  free  transition at x/c =  0.7659   48

   4   rms: 0.1876E+02   max: 0.2969E+03   T at    2  1   RLX: 0.004
       a =  5.000      CL =  1.1278
      Cm = -0.1514     CD =  0.17063   =>   CDf =  0.00200    CDp =  0.16863

 Side 1  free  transition at x/c =  0.0399   26
 Side 2  free  transition at x/c =  0.7669   48

   5   rms: 0.8953E+01   max: -.3487E+02   D at   27  1   RLX: 0.014
       a =  5.000      CL =  1.1625
      Cm = -0.1405     CD =  0.15384   =>   CDf =  0.00199    CDp =  0.15185

 Side 1  free  transition at x/c =  0.0405   26
 Side 2  free  transition at x/c =  0.7733   48
 idif Ue xi dudx           1  0.14524084      5.06949425E-03   28.649967    
 Uenew xinew           2  4.31494340E-02  1.50609016E-03

   6   rms: 0.1679E+01   max: 0.8280E+01   D at   28  1   RLX: 0.158
       a =  5.000      CL =  1.0535
      Cm = -0.1487     CD =  0.18515   =>   CDf =  0.00236    CDp =  0.18279

 Side 1  free  transition at x/c =  0.0439   25
 Side 2  free  transition at x/c =  0.7578   49

   7   rms: 0.1892E+01   max: -.7235E+01   D at   27  1   RLX: 0.069
       a =  5.000      CL =  0.9673
      Cm = -0.1022     CD =  0.15102   =>   CDf =  0.00174    CDp =  0.14928

 Side 1  free  transition at x/c =  0.0419   26
 Side 2  free  transition at x/c =  0.7631   48
 idif Ue xi dudx           2  0.20967817      7.09223747E-03   29.564461    
 Uenew xinew           3  0.10432806      3.52883339E-03

   8   rms: 0.3357E+01   max: 0.1865E+02   D at   28  1   RLX: 0.080
       a =  5.000      CL =  0.8759
      Cm = -0.1186     CD =  0.19596   =>   CDf =  0.00259    CDp =  0.19337

 Side 1  free  transition at x/c =  0.0473   25
 Side 2  free  transition at x/c =  0.7519   49

   9   rms: 0.2959E+01   max: 0.2511E+02   T at    2  2   RLX: 0.037
       a =  5.000      CL =  0.8259
      Cm = -0.0893     CD =  0.16420   =>   CDf =  0.00182    CDp =  0.16238

 Side 1  free  transition at x/c =  0.0464   26
 Side 2  free  transition at x/c =  0.7585   49

  10   rms: 0.3528E+01   max: -.1709E+02   D at   27  1   RLX: 0.029
       a =  5.000      CL =  0.8591
      Cm = -0.0791     CD =  0.15254   =>   CDf =  0.00183    CDp =  0.15071

 Side 1  free  transition at x/c =  0.0438   26
 Side 2  free  transition at x/c =  0.7624   48

  11   rms: 0.8537E+00   max: 0.4040E+01   T at   26  1   RLX: 0.192
       a =  5.000      CL =  0.9729
      Cm = -0.0793     CD =  0.12868   =>   CDf =  0.00210    CDp =  0.12658

 Side 1  free  transition at x/c =  0.0370   25
 Side 2  free  transition at x/c =  0.7705   48

  12   rms: 0.1252E+01   max: 0.6292E+01   T at   25  1   RLX: 0.117
       a =  5.000      CL =  1.0448
      Cm = -0.0735     CD =  0.11651   =>   CDf =  0.00172    CDp =  0.11479

 Side 1  free  transition at x/c =  0.0314   25
 Side 2  free  transition at x/c =  0.7776   48

  13   rms: 0.4032E+00   max: 0.2852E+01   T at   25  1   RLX: 0.270
       a =  5.000      CL =  1.1623
      Cm = -0.0922     CD =  0.10508   =>   CDf =  0.00210    CDp =  0.10298

 Side 1  free  transition at x/c =  0.0280   25
 Side 2  free  transition at x/c =  0.7788   48
 idif Ue xi dudx           1  0.17411979      6.32047653E-03   27.548521    
 Uenew xinew           2  6.49254620E-02  2.35676765E-03

  14   rms: 0.8826E+00   max: 0.2529E+01   D at   29  1   RLX: 0.385
       a =  5.000      CL =  1.1707
      Cm = -0.1436     CD =  0.15371   =>   CDf =  0.00216    CDp =  0.15155

 Side 1  free  transition at x/c =  0.0308   24
 Side 2  free  transition at x/c =  0.7685   48

  15   rms: 0.2861E+00   max: 0.1080E+01   T at   24  1   RLX: 0.751
       a =  5.000      CL =  1.2275
      Cm = -0.1186     CD =  0.09839   =>   CDf =  0.00156    CDp =  0.09683
 VISCAL:  Convergence failed
 SINVRT: spline inversion failed. Input value returned.
 SINVRT: spline inversion failed. Input value returned.
 SINVRT: spline inversion failed. Input value returned.
 SINVRT: spline inversion failed. Input value returned.
 Calculating wake trajectory ...
 Calculating source influence matrix ...

 Solving BL system ...

 Side 1  free  transition at x/c =  0.0273   25
 Side 2  free  transition at x/c =  0.7732   47
 idif Ue xi dudx           1  0.11765973      4.48727608E-03   26.220745    
 Uenew xinew           2  1.37283225E-02  5.23567200E-04

   1   rms: 0.2953E+00   max: -.1971E+01   D at    2  1   RLX: 0.254
       a =  5.500      CL =  1.2278
      Cm = -0.1253     CD =  0.11870   =>   CDf =  0.00222    CDp =  0.11648

 Side 1  free  transition at x/c =  0.0283   24
 Side 2  free  transition at x/c =  0.7723   48

   2   rms: 0.7828E+00   max: -.2815E+01   T at    2  2   RLX: 0.178
       a =  5.500      CL =  1.2012
      Cm = -0.1385     CD =  0.13638   =>   CDf =  0.00183    CDp =  0.13455

 Side 1  free  transition at x/c =  0.0312   24
 Side 2  free  transition at x/c =  0.7677   48

   3   rms: 0.9446E-01   max: 0.6029E+00   T at   24  1   RLX: 0.837
       a =  5.500      CL =  1.2125
      Cm = -0.1432     CD =  0.12925   =>   CDf =  0.00179    CDp =  0.12747

 Side 1  free  transition at x/c =  0.0301   24
 Side 2  free  transition at x/c =  0.7712   48

   4   rms: 0.1848E+00   max: 0.5977E+00   T at   24  1   RLX: 0.871
       a =  5.500      CL =  1.2485
      Cm = -0.1282     CD =  0.11069   =>   CDf =  0.00176    CDp =  0.10893

 Side 1  free  transition at x/c =  0.0274   24
 Side 2  free  transition at x/c =  0.7801   49

   5   rms: 0.1626E+00   max: -.8009E+00   T at   24  1   RLX: 0.624
       a =  5.500      CL =  1.2391
      Cm = -0.1292     CD =  0.12702   =>   CDf =  0.00198    CDp =  0.12504

 Side 1  free  transition at x/c =  0.0301   24
 Side 2  free  transition at x/c =  0.7766   49

   6   rms: 0.1334E+00   max: 0.1017E+01   T at   24  1
       a =  5.500      CL =  1.2672
      Cm = -0.1245     CD =  0.10651   =>   CDf =  0.00152    CDp =  0.10499

 Side 1  free  transition at x/c =  0.0271   25
 Side 2  free  transition at x/c =  0.7790   48
 idif Ue xi dudx           1  0.10492273      4.18782234E-03   25.054245    
 Uenew xinew           2  5.61499363E-03  2.24113464E-04

   7   rms: 0.1021E+00   max: -.8346E+00   T at   25  1   RLX: 0.599
       a =  5.500      CL =  1.2652
      Cm = -0.1338     CD =  0.12035   =>   CDf =  0.00207    CDp =  0.11828

 Side 1  free  transition at x/c =  0.0287   24
 Side 2  free  transition at x/c =  0.7770   49

   8   rms: 0.4071E+01   max: 0.3586E+02   T at    2  2   RLX: 0.027
       a =  5.500      CL =  1.3330
      Cm = -0.1368     CD =  0.10962   =>   CDf =  0.00147    CDp =  0.10815

 Side 1  free  transition at x/c =  0.0266   25
 Side 2  free  transition at x/c =  0.7800   48

   9   rms: 0.1214E+00   max: -.6932E+00   T at   25  1   RLX: 0.721
       a =  5.500      CL =  1.2901
      Cm = -0.1330     CD =  0.11061   =>   CDf =  0.00181    CDp =  0.10880

 Side 1  free  transition at x/c =  0.0271   25
 Side 2  free  transition at x/c =  0.7783   48
 idif Ue xi dudx           1  0.10410086      4.20093536E-03   24.780401    
 Uenew xinew           2  5.87856770E-03  2.37226486E-04

  10   rms: 0.1002E+00   max: -.8165E+00   T at   25  1   RLX: 0.612
       a =  5.500      CL =  1.2769
      Cm = -0.1357     CD =  0.11955   =>   CDf =  0.00208    CDp =  0.11747

 Side 1  free  transition at x/c =  0.0288   24
 Side 2  free  transition at x/c =  0.7767   49

  11   rms: 0.1753E+01   max: 0.1433E+02   D at    2  2   RLX: 0.067
       a =  5.500      CL =  1.3332
      Cm = -0.1348     CD =  0.10741   =>   CDf =  0.00148    CDp =  0.10594

 Side 1  free  transition at x/c =  0.0265   25
 Side 2  free  transition at x/c =  0.7798   48

  12   rms: 0.1379E+00   max: -.6408E+00   T at   25  1   RLX: 0.780
       a =  5.500      CL =  1.2825
      Cm = -0.1307     CD =  0.10759   =>   CDf =  0.00182    CDp =  0.10577

 Side 1  free  transition at x/c =  0.0269   25
 Side 2  free  transition at x/c =  0.7789   48

  13   rms: 0.9223E-01   max: -.7893E+00   T at   25  1   RLX: 0.633
       a =  5.500      CL =  1.2718
      Cm = -0.1317     CD =  0.11668   =>   CDf =  0.00182    CDp =  0.11486

 Side 1  free  transition at x/c =  0.0282   25
 Side 2  free  transition at x/c =  0.7777   48
 idif Ue xi dudx           1  0.12876134      4.98867035E-03   25.810753    
 Uenew xinew           2  2.64550280E-02  1.02496147E-03

  14   rms: 0.4279E+00   max: -.2510E+01   T at   25  1   RLX: 0.199
       a =  5.500      CL =  1.2831
      Cm = -0.1472     CD =  0.13075   =>   CDf =  0.00205    CDp =  0.12870

 Side 1  free  transition at x/c =  0.0314   24
 Side 2  free  transition at x/c =  0.7750   49

  15   rms: 0.1810E+00   max: -.8079E+00   T at   25  1   RLX: 0.619
       a =  5.500      CL =  1.2506
      Cm = -0.1600     CD =  0.13817   =>   CDf =  0.00176    CDp =  0.13641
 VISCAL:  Convergence failed
 SINVRT: spline inversion failed. Input value returned.
 SINVRT: spline inversion failed. Input value returned.

 Sequence halted since previous  4 points did not converge
 Last-converged  alpha =   3.500    CL =   1.47110

.OPERva   c>  
 Polar accumulation disabled

.OPERv   c>  
        airfoil                    Re           Mach       Ncrit  XtripT  XtripB     file
       ------------------------  ------------  ----------  -----  ------  ------    -------------------
    1  HT 14                     2.430e5       0.000        9.00   1.000   1.000    

Enter polar output filename   s>  
 Output file exists.  Overwrite?  Y

.OPERv   c>  
 XFOIL   c>  
 XFOIL   c>  