
 ===================================================
  XFOIL Version 6.99
  Copyright (C) 2000   Mark Drela, Harold Youngren

  This software comes with ABSOLUTELY NO WARRANTY,
    subject to the GNU General Public License.

  Caveat computor
 ===================================================

 File  xfoil.def  not found

   QUIT    Exit program

  .OPER    Direct operating point(s)
  .MDES    Complex mapping design routine
  .QDES    Surface speed design routine
  .GDES    Geometry design routine

   SAVE f  Write airfoil to labeled coordinate file
   PSAV f  Write airfoil to plain coordinate file
   ISAV f  Write airfoil to ISES coordinate file
   MSAV f  Write airfoil to MSES coordinate file
   REVE    Reverse written-airfoil node ordering

   LOAD f  Read buffer airfoil from coordinate file
   NACA i  Set NACA 4,5-digit airfoil and buffer airfoil
   INTE    Set buffer airfoil by interpolating two airfoils
   NORM    Buffer airfoil normalization toggle
   XYCM rr Change CM reference location, currently  0.25000 0.00000

   BEND    Display structural properties of current airfoil

   PCOP    Set current-airfoil panel nodes directly from buffer airfoil points
   PANE    Set current-airfoil panel nodes ( 160 ) based on curvature
  .PPAR    Show/change paneling

  .PLOP    Plotting options

   WDEF f  Write  current-settings file
   RDEF f  Reread current-settings file
   NAME s  Specify new airfoil name
   NINC    Increment name version number

   Z       Zoom    | (available in all menus)
   U       Unzoom  | 

 XFOIL   c>  
 Labeled airfoil file.  Name:  AG 36                                           

 Number of input coordinate points: 183
 Counterclockwise ordering
 Max thickness =     0.081895  at x =   0.279
 Max camber    =     0.039113  at x =   0.660

  LE  x,y  =   0.00001   0.02663  |   Chord =   0.99611
  TE  x,y  =   0.99432  -0.03316  |

 Current airfoil nodes set from buffer airfoil nodes ( 183 )

 XFOIL   c>  
.OPERi   c>  
Enter Reynolds number   r>  
 M  =    0.0000
 Re =    243000

.OPERv   c>   Calculating unit vorticity distributions ...
 Calculating wake trajectory ...
 Calculating source influence matrix ...

 Solving BL system ...

 Initializing BL ...
    side            1  ...
 MRCHUE: Inverse mode at  51     Hk =   3.966
 MRCHUE: Inverse mode at  52     Hk =   4.370
 MRCHUE: Inverse mode at  53     Hk =   4.765
 MRCHUE: Inverse mode at  54     Hk =   5.151
 MRCHUE: Inverse mode at  55     Hk =   5.532
 MRCHUE: Inverse mode at  56     Hk =   5.903
 MRCHUE: Inverse mode at  57     Hk =   6.281
 MRCHUE: Inverse mode at  58     Hk =   6.665
 MRCHUE: Inverse mode at  59     Hk =   7.049
 MRCHUE: Inverse mode at  60     Hk =   5.172
 MRCHUE: Inverse mode at  61     Hk =   3.831
 MRCHUE: Inverse mode at  62     Hk =   2.818
 MRCHUE: Inverse mode at  97     Hk =   2.500
 MRCHUE: Inverse mode at  98     Hk =   2.500
 MRCHUE: Inverse mode at  99     Hk =   2.500
    side            2  ...
 MRCHUE: Inverse mode at  60     Hk =   3.800
 MRCHUE: Inverse mode at  61     Hk =   4.098
 MRCHUE: Inverse mode at  62     Hk =   4.392
 MRCHUE: Inverse mode at  63     Hk =   4.680
 MRCHUE: Inverse mode at  64     Hk =   4.965
 MRCHUE: Inverse mode at  65     Hk =   5.247
 MRCHUE: Convergence failed at  66  side 2    Res =  0.1624E+01
 MRCHUE: Inverse mode at  67     Hk =   5.523
 MRCHUE: Convergence failed at  68  side 2    Res =  0.2976E+01
 MRCHUE: Convergence failed at  69  side 2    Res =  0.4015E+01
 MRCHUE: Inverse mode at  70     Hk =   5.619
 MRCHUE: Inverse mode at  71     Hk =   5.811
 MRCHUE: Inverse mode at  72     Hk =   6.079
 MRCHUE: Inverse mode at  73     Hk =   6.344
 MRCHUE: Inverse mode at  74     Hk =   6.607
 MRCHUE: Inverse mode at  75     Hk =   6.867
 MRCHUE: Inverse mode at  76     Hk =   7.125
 MRCHUE: Inverse mode at  77     Hk =   7.382
 MRCHUE: Inverse mode at  78     Hk =   7.636
 MRCHUE: Inverse mode at  79     Hk =   7.888
 MRCHUE: Inverse mode at  80     Hk =   8.139
 MRCHUE: Inverse mode at  81     Hk =   8.387
 MRCHUE: Inverse mode at  82     Hk =   8.631
 MRCHUE: Inverse mode at  83     Hk =   8.866
 MRCHUE: Inverse mode at  84     Hk =   9.081
 MRCHUE: Inverse mode at  85     Hk =   9.027
 MRCHUE: Inverse mode at  86     Hk =   8.566
 MRCHUE: Inverse mode at  88     Hk =   3.477

 MRCHDU: Convergence failed at  68  side 2    Res =  0.6094E+01
 MRCHDU: Convergence failed at  69  side 2    Res =  0.5637E+01
 MRCHDU: Convergence failed at  70  side 2    Res =  0.6040E+01
 MRCHDU: Convergence failed at  71  side 2    Res =  0.6673E+01
 MRCHDU: Convergence failed at  72  side 2    Res =  0.8066E+01
 MRCHDU: Convergence failed at  73  side 2    Res =  0.1173E+02
 MRCHDU: Convergence failed at  74  side 2    Res =  0.1887E+02
 MRCHDU: Convergence failed at  75  side 2    Res =  0.6024E+02
 MRCHDU: Convergence failed at  76  side 2    Res =  0.4947E+02
 MRCHDU: Convergence failed at  77  side 2    Res =  0.1840E+02
 MRCHDU: Convergence failed at  78  side 2    Res =  0.1148E+02
 MRCHDU: Convergence failed at  79  side 2    Res =  0.8353E+01
 MRCHDU: Convergence failed at  80  side 2    Res =  0.6471E+01
 MRCHDU: Convergence failed at  81  side 2    Res =  0.5290E+01
 MRCHDU: Convergence failed at  82  side 2    Res =  0.4577E+01
 MRCHDU: Convergence failed at  83  side 2    Res =  0.4052E+01
 MRCHDU: Convergence failed at  84  side 2    Res =  0.3392E+01
 MRCHDU: Convergence failed at  85  side 2    Res =  0.4371E+01
 MRCHDU: Convergence failed at  86  side 2    Res =  0.4818E+01
 Side 1  free  transition at x/c =  0.5082   60
 Side 2 forced transition at x/c =  0.9998   86
 idif Ue xi dudx           1  0.19055545      2.32517719E-03   81.953087    
 Uenew xinew           2  1.64812636E-02  2.01106071E-04

   1   rms: 0.7462E+00   max: -.6279E+01   C at   86  2   RLX: 0.080
       a =  0.000      CL =  1.0098
      Cm = -0.1565     CD =  0.00923   =>   CDf =  0.00679    CDp =  0.00244

 Side 1  free  transition at x/c =  0.5142   59
 Side 2 forced transition at x/c =  0.9998   87

   2   rms: 0.5275E+00   max: -.7612E+01   C at   87  2   RLX: 0.066
       a =  0.000      CL =  0.9972
      Cm = -0.1552     CD =  0.00983   =>   CDf =  0.00665    CDp =  0.00318

 Side 1  free  transition at x/c =  0.5183   59
 Side 2 forced transition at x/c =  0.9998   87

   3   rms: 0.2669E+00   max: -.4080E+01   C at   87  2   RLX: 0.123
       a =  0.000      CL =  0.9859
      Cm = -0.1523     CD =  0.01017   =>   CDf =  0.00673    CDp =  0.00345

 Side 1  free  transition at x/c =  0.5247   60
 Side 2 forced transition at x/c =  0.9998   87

   4   rms: 0.2626E+00   max: -.4051E+01   C at   87  2   RLX: 0.123
       a =  0.000      CL =  0.9736
      Cm = -0.1496     CD =  0.00928   =>   CDf =  0.00661    CDp =  0.00267

 Side 1  free  transition at x/c =  0.5306   60
 Side 2 forced transition at x/c =  0.9998   87

   5   rms: 0.1639E+00   max: -.2393E+01   C at   87  2   RLX: 0.209
       a =  0.000      CL =  0.9630
      Cm = -0.1465     CD =  0.00988   =>   CDf =  0.00664    CDp =  0.00325

 Side 1  free  transition at x/c =  0.5405   61
 Side 2 forced transition at x/c =  0.9998   87

   6   rms: 0.1484E+00   max: -.2003E+01   C at   87  2   RLX: 0.250
       a =  0.000      CL =  0.9528
      Cm = -0.1440     CD =  0.00944   =>   CDf =  0.00647    CDp =  0.00298

 Side 1  free  transition at x/c =  0.5491   62
 Side 2 forced transition at x/c =  0.9998   87

   7   rms: 0.1442E+00   max: -.1497E+01   C at   87  2   RLX: 0.334
       a =  0.000      CL =  0.9364
      Cm = -0.1396     CD =  0.00978   =>   CDf =  0.00653    CDp =  0.00325

 Side 1  free  transition at x/c =  0.5617   63
 Side 2 forced transition at x/c =  0.9998   87

   8   rms: 0.7519E-01   max: -.7881E+00   C at   63  1   RLX: 0.634
       a =  0.000      CL =  0.9323
      Cm = -0.1378     CD =  0.01021   =>   CDf =  0.00632    CDp =  0.00389

 Side 1  free  transition at x/c =  0.5785   64
 Side 2 forced transition at x/c =  0.9998   87

   9   rms: 0.4145E-01   max: -.4958E+00   C at   64  1
       a =  0.000      CL =  0.9353
      Cm = -0.1381     CD =  0.01031   =>   CDf =  0.00621    CDp =  0.00410

 Side 1  free  transition at x/c =  0.5998   65
 Side 2 forced transition at x/c =  0.9998   87

  10   rms: 0.1573E-01   max: -.2217E+00   C at   65  1
       a =  0.000      CL =  0.9381
      Cm = -0.1387     CD =  0.01039   =>   CDf =  0.00600    CDp =  0.00439
 VISCAL:  Convergence failed
 Type "!" to continue iterating

.OPERv   c>  
  Top    surface:  y =  0.0263     y/t = 1.0
  Bottom surface:  y =  0.0261     y/t = 0.0

 Flap hinge x,y :  0.0000  0.0000
                                           2  2
 Hinge moment/span = 0.373479  x  1/2 rho V  c 
                                           2   
 x-Force     /span = -.012683  x  1/2 rho V  c 
                                           2   
 y-Force     /span = 0.938202  x  1/2 rho V  c 


.OPERv   c>   Calculating wake trajectory ...
 Calculating source influence matrix ...

 Solving BL system ...

 Side 1  free  transition at x/c =  0.6037   66
 Side 2 forced transition at x/c =  0.9998   87

   1   rms: 0.2449E+00   max: 0.2849E+01   C at   66  1   RLX: 0.487
       a =  1.000      CL =  0.9830
      Cm = -0.1369     CD =  0.01181   =>   CDf =  0.00575    CDp =  0.00606

 Side 1  free  transition at x/c =  0.5519   63
 Side 2 forced transition at x/c =  0.9998   86

   2   rms: 0.2202E+00   max: 0.3625E+01   T at    2  1   RLX: 0.288
       a =  1.000      CL =  0.9971
      Cm = -0.1362     CD =  0.01157   =>   CDf =  0.00619    CDp =  0.00538

 Side 1  free  transition at x/c =  0.5385   62
 Side 2 forced transition at x/c =  0.9998   86

   3   rms: 0.6991E-01   max: -.4724E+00   D at   64  1
       a =  1.000      CL =  1.0341
      Cm = -0.1358     CD =  0.01201   =>   CDf =  0.00622    CDp =  0.00579

 Side 1  free  transition at x/c =  0.5024   59
 Side 2 forced transition at x/c =  0.9998   86

   4   rms: 0.1947E-01   max: -.2629E+00   D at   60  1
       a =  1.000      CL =  1.0328
      Cm = -0.1355     CD =  0.01214   =>   CDf =  0.00632    CDp =  0.00581

 Side 1  free  transition at x/c =  0.5053   59
 Side 2 forced transition at x/c =  0.9998   86

   5   rms: 0.2130E-02   max: 0.2143E-01   C at   59  1
       a =  1.000      CL =  1.0330
      Cm = -0.1356     CD =  0.01209   =>   CDf =  0.00625    CDp =  0.00583

 Side 1  free  transition at x/c =  0.5045   59
 Side 2 forced transition at x/c =  0.9998   86

   6   rms: 0.2276E-04   max: -.1914E-03   C at   59  1
       a =  1.000      CL =  1.0329
      Cm = -0.1355     CD =  0.01209   =>   CDf =  0.00626    CDp =  0.00583

.OPERv   c>  
 Flap hinge x,y :  0.0000  0.0000
                                           2  2
 Hinge moment/span = 0.393764  x  1/2 rho V  c 
                                           2   
 x-Force     /span = -.014228  x  1/2 rho V  c 
                                           2   
 y-Force     /span = 1.032817  x  1/2 rho V  c 


.OPERv   c>   Calculating wake trajectory ...
 Calculating source influence matrix ...

 Solving BL system ...

 Side 1  free  transition at x/c =  0.5045   59
 Side 2 forced transition at x/c =  0.9998   86

   1   rms: 0.1796E+00   max: 0.1525E+00   D at   94  2   RLX: 0.781
       a =  2.000      CL =  1.1068
      Cm = -0.1330     CD =  0.01293   =>   CDf =  0.00605    CDp =  0.00688

 Side 1  free  transition at x/c =  0.4063   53
 Side 2 forced transition at x/c =  0.9998   85

   2   rms: 0.5843E-01   max: -.6036E+00   D at   54  1   RLX: 0.828
       a =  2.000      CL =  1.1173
      Cm = -0.1310     CD =  0.01337   =>   CDf =  0.00661    CDp =  0.00675

 Side 1  free  transition at x/c =  0.3867   51
 Side 2 forced transition at x/c =  0.9998   85

   3   rms: 0.1700E-01   max: -.3075E+00   D at   54  1
       a =  2.000      CL =  1.1201
      Cm = -0.1310     CD =  0.01361   =>   CDf =  0.00652    CDp =  0.00709

 Side 1  free  transition at x/c =  0.3762   50
 Side 2 forced transition at x/c =  0.9998   85

   4   rms: 0.3097E-02   max: -.5616E-01   D at   54  1
       a =  2.000      CL =  1.1198
      Cm = -0.1309     CD =  0.01364   =>   CDf =  0.00658    CDp =  0.00706

 Side 1  free  transition at x/c =  0.3763   50
 Side 2 forced transition at x/c =  0.9998   85

   5   rms: 0.8122E-04   max: -.1576E-02   D at   54  1
       a =  2.000      CL =  1.1198
      Cm = -0.1309     CD =  0.01364   =>   CDf =  0.00657    CDp =  0.00707

.OPERv   c>  
 Flap hinge x,y :  0.0000  0.0000
                                           2  2
 Hinge moment/span = 0.410726  x  1/2 rho V  c 
                                           2   
 x-Force     /span = -.034699  x  1/2 rho V  c 
                                           2   
 y-Force     /span = 1.119221  x  1/2 rho V  c 


.OPERv   c>   Calculating wake trajectory ...
 Calculating source influence matrix ...

 Solving BL system ...

 Side 1  free  transition at x/c =  0.3763   50
 Side 2 forced transition at x/c =  0.9998   85

   1   rms: 0.2223E+00   max: 0.2480E+01   C at   50  1   RLX: 0.465
       a =  3.000      CL =  1.1603
      Cm = -0.1289     CD =  0.01451   =>   CDf =  0.00632    CDp =  0.00820

 Side 1  free  transition at x/c =  0.2950   45
 Side 2 forced transition at x/c =  0.9998   84

   2   rms: 0.1104E+00   max: -.8484E+00   D at   46  1   RLX: 0.589
       a =  3.000      CL =  1.1886
      Cm = -0.1277     CD =  0.01526   =>   CDf =  0.00701    CDp =  0.00825

 Side 1  free  transition at x/c =  0.2432   41
 Side 2 forced transition at x/c =  0.9998   84

   3   rms: 0.4975E-01   max: -.5273E+00   D at   42  1   RLX: 0.948
       a =  3.000      CL =  1.2026
      Cm = -0.1264     CD =  0.01601   =>   CDf =  0.00719    CDp =  0.00882

 Side 1  free  transition at x/c =  0.2129   39
 Side 2 forced transition at x/c =  0.9998   84

   4   rms: 0.1468E-01   max: 0.1800E+00   D at   40  1
       a =  3.000      CL =  1.2008
      Cm = -0.1260     CD =  0.01628   =>   CDf =  0.00732    CDp =  0.00896

 Side 1  free  transition at x/c =  0.2136   39
 Side 2 forced transition at x/c =  0.9998   84

   5   rms: 0.2302E-02   max: 0.3884E-01   C at   39  1
       a =  3.000      CL =  1.2009
      Cm = -0.1260     CD =  0.01628   =>   CDf =  0.00729    CDp =  0.00899

 Side 1  free  transition at x/c =  0.2128   39
 Side 2 forced transition at x/c =  0.9998   84

   6   rms: 0.4258E-04   max: -.3275E-03   C at   39  1
       a =  3.000      CL =  1.2009
      Cm = -0.1260     CD =  0.01628   =>   CDf =  0.00731    CDp =  0.00897

.OPERv   c>  
 Flap hinge x,y :  0.0000  0.0000
                                           2  2
 Hinge moment/span = 0.425870  x  1/2 rho V  c 
                                           2   
 x-Force     /span = -.057526  x  1/2 rho V  c 
                                           2   
 y-Force     /span = 1.199449  x  1/2 rho V  c 


.OPERv   c>   Calculating wake trajectory ...
 Calculating source influence matrix ...

 Solving BL system ...

 Side 1  free  transition at x/c =  0.2128   39
 Side 2 forced transition at x/c =  0.9998   84

   1   rms: 0.2922E+00   max: 0.3736E+01   C at   39  1   RLX: 0.247
       a =  4.000      CL =  1.2202
      Cm = -0.1249     CD =  0.01722   =>   CDf =  0.00731    CDp =  0.00991

 Side 1  free  transition at x/c =  0.1787   36
 Side 2 forced transition at x/c =  0.9998   84

   2   rms: 0.1757E+00   max: 0.1333E+01   C at   36  1   RLX: 0.471
       a =  4.000      CL =  1.2517
      Cm = -0.1236     CD =  0.01814   =>   CDf =  0.00720    CDp =  0.01094

 Side 1  free  transition at x/c =  0.1356   33
 Side 2 forced transition at x/c =  0.9998   83

   3   rms: 0.1046E+00   max: -.8606E+00   C at   33  1   RLX: 0.581
       a =  4.000      CL =  1.2768
      Cm = -0.1234     CD =  0.01804   =>   CDf =  0.00767    CDp =  0.01037

 Side 1  free  transition at x/c =  0.1076   31
 Side 2 forced transition at x/c =  0.9998   83

   4   rms: 0.4747E-01   max: -.5328E+00   D at   31  1   RLX: 0.938
       a =  4.000      CL =  1.2829
      Cm = -0.1218     CD =  0.01935   =>   CDf =  0.00776    CDp =  0.01159

 Side 1  free  transition at x/c =  0.0860   29
 Side 2 forced transition at x/c =  0.9998   83

   5   rms: 0.2113E-01   max: -.3250E+00   D at   31  1
       a =  4.000      CL =  1.2807
      Cm = -0.1213     CD =  0.01964   =>   CDf =  0.00789    CDp =  0.01175

 Side 1  free  transition at x/c =  0.0799   28
 Side 2 forced transition at x/c =  0.9998   83

   6   rms: 0.3415E-02   max: -.4235E-01   D at   31  1
       a =  4.000      CL =  1.2800
      Cm = -0.1212     CD =  0.01970   =>   CDf =  0.00796    CDp =  0.01174

 Side 1  free  transition at x/c =  0.0796   28
 Side 2 forced transition at x/c =  0.9998   83

   7   rms: 0.6883E-04   max: 0.7174E-03   C at   28  1
       a =  4.000      CL =  1.2800
      Cm = -0.1212     CD =  0.01970   =>   CDf =  0.00795    CDp =  0.01174

.OPERv   c>  
 Flap hinge x,y :  0.0000  0.0000
                                           2  2
 Hinge moment/span = 0.440558  x  1/2 rho V  c 
                                           2   
 x-Force     /span = -.082511  x  1/2 rho V  c 
                                           2   
 y-Force     /span = 1.277219  x  1/2 rho V  c 


.OPERv   c>   Calculating wake trajectory ...
 Calculating source influence matrix ...

 Solving BL system ...

 Side 1  free  transition at x/c =  0.0795   28
 Side 2 forced transition at x/c =  0.9998   83

   1   rms: 0.2740E+00   max: 0.2452E+01   T at   28  1   RLX: 0.265
       a =  5.000      CL =  1.3031
      Cm = -0.1200     CD =  0.02055   =>   CDf =  0.00796    CDp =  0.01260

 Side 1  free  transition at x/c =  0.0524   26
 Side 2 forced transition at x/c =  0.9998   83

   2   rms: 0.2400E+00   max: 0.2704E+01   T at   26  1   RLX: 0.375
       a =  5.000      CL =  1.3160
      Cm = -0.1174     CD =  0.02316   =>   CDf =  0.00784    CDp =  0.01531

 MRCHDU: Convergence failed at  27  side 1    Res =  0.2905E+02
 Side 1  free  transition at x/c =  0.0393   25
 Side 2 forced transition at x/c =  0.9998   82

   3   rms: 0.1221E+00   max: 0.1317E+01   T at   25  1   RLX: 0.444
       a =  5.000      CL =  1.3300
      Cm = -0.1147     CD =  0.02378   =>   CDf =  0.00822    CDp =  0.01556

 Side 1  free  transition at x/c =  0.0326   25
 Side 2 forced transition at x/c =  0.9998   82

   4   rms: 0.3112E+00   max: -.2482E+01   T at   25  1   RLX: 0.201
       a =  5.000      CL =  1.2734
      Cm = -0.1047     CD =  0.02790   =>   CDf =  0.00913    CDp =  0.01877

 Side 1  free  transition at x/c =  0.0364   25
 Side 2 forced transition at x/c =  0.9998   82

   5   rms: 0.1420E+00   max: -.9239E+00   D at   27  1   RLX: 0.541
       a =  5.000      CL =  1.2754
      Cm = -0.1024     CD =  0.02892   =>   CDf =  0.00850    CDp =  0.02042

 Side 1  free  transition at x/c =  0.0372   25
 Side 2 forced transition at x/c =  0.9998   82

   6   rms: 0.1314E+00   max: -.1025E+01   D at   27  1   RLX: 0.488
       a =  5.000      CL =  1.2983
      Cm = -0.1058     CD =  0.02573   =>   CDf =  0.00805    CDp =  0.01767

 Side 1  free  transition at x/c =  0.0347   25
 Side 2 forced transition at x/c =  0.9998   82

   7   rms: 0.1061E+00   max: -.1004E+01   D at   27  1   RLX: 0.498
       a =  5.000      CL =  1.3246
      Cm = -0.1099     CD =  0.02466   =>   CDf =  0.00794    CDp =  0.01672

 Side 1  free  transition at x/c =  0.0320   24
 Side 2 forced transition at x/c =  0.9998   82

   8   rms: 0.4142E-01   max: -.3968E+00   D at   27  1
       a =  5.000      CL =  1.3399
      Cm = -0.1124     CD =  0.02449   =>   CDf =  0.00802    CDp =  0.01647

 Side 1  free  transition at x/c =  0.0289   24
 Side 2 forced transition at x/c =  0.9998   82

   9   rms: 0.4152E-02   max: 0.1246E-01   U at   27  1
       a =  5.000      CL =  1.3379
      Cm = -0.1122     CD =  0.02494   =>   CDf =  0.00804    CDp =  0.01689

 Side 1  free  transition at x/c =  0.0290   24
 Side 2 forced transition at x/c =  0.9998   82

  10   rms: 0.8294E-04   max: -.3272E-03   D at  103  1
       a =  5.000      CL =  1.3379
      Cm = -0.1122     CD =  0.02494   =>   CDf =  0.00804    CDp =  0.01690

.OPERv   c>  
 Flap hinge x,y :  0.0000  0.0000
                                           2  2
 Hinge moment/span = 0.445603  x  1/2 rho V  c 
                                           2   
 x-Force     /span = -.107287  x  1/2 rho V  c 
                                           2   
 y-Force     /span = 1.333486  x  1/2 rho V  c 


.OPERv   c>  
 Solving BL system ...

 Side 1  free  transition at x/c =  0.0290   24
 Side 2 forced transition at x/c =  0.9998   82

   1   rms: 0.1364E-05   max: -.1239E-04   T at   24  1
       a =  5.000      CL =  1.3379
      Cm = -0.1122     CD =  0.02494   =>   CDf =  0.00804    CDp =  0.01690
 Calculating wake trajectory ...
 Calculating source influence matrix ...

 Solving BL system ...

 Side 1  free  transition at x/c =  0.0290   24
 Side 2 forced transition at x/c =  0.9998   82

   1   rms: 0.8857E-01   max: 0.7018E+00   T at   24  1
       a =  5.500      CL =  1.3686
      Cm = -0.1080     CD =  0.02712   =>   CDf =  0.00805    CDp =  0.01907

 MRCHDU: Convergence failed at  24  side 1    Res =  0.7319E+01
 MRCHDU: Convergence failed at  25  side 1    Res =  0.4410E+01
 MRCHDU: Convergence failed at  26  side 1    Res =  0.3358E+01
 MRCHDU: Convergence failed at  27  side 1    Res =  0.6158E+01
 MRCHDU: Convergence failed at  28  side 1    Res =  0.9638E+01
 MRCHDU: Convergence failed at  29  side 1    Res =  0.1428E+02
 MRCHDU: Convergence failed at  30  side 1    Res =  0.1566E+02
 MRCHDU: Convergence failed at  31  side 1    Res =  0.1390E+02
 MRCHDU: Convergence failed at  32  side 1    Res =  0.9903E+01
 MRCHDU: Convergence failed at  33  side 1    Res =  0.1681E+02
 MRCHDU: Convergence failed at  34  side 1    Res =  0.2228E+02
 MRCHDU: Convergence failed at  35  side 1    Res =  0.2540E+02
 MRCHDU: Convergence failed at  36  side 1    Res =  0.2932E+02
 MRCHDU: Convergence failed at  37  side 1    Res =  0.4311E+02
 MRCHDU: Convergence failed at  38  side 1    Res =  0.3978E+02
 MRCHDU: Convergence failed at  39  side 1    Res =  0.4096E+02
 MRCHDU: Convergence failed at  40  side 1    Res =  0.3828E+02
 MRCHDU: Convergence failed at  41  side 1    Res =  0.3498E+02
 MRCHDU: Convergence failed at  42  side 1    Res =  0.3230E+02
 MRCHDU: Convergence failed at  43  side 1    Res =  0.4718E+03
 MRCHDU: Convergence failed at  44  side 1    Res =  0.2903E+02
 MRCHDU: Convergence failed at  45  side 1    Res =  0.2809E+02
 MRCHDU: Convergence failed at  46  side 1    Res =  0.2118E+02
 MRCHDU: Convergence failed at  47  side 1    Res =  0.2230E+02
 MRCHDU: Convergence failed at  48  side 1    Res =  0.2348E+02
 MRCHDU: Convergence failed at  49  side 1    Res =  0.2420E+02
 MRCHDU: Convergence failed at  50  side 1    Res =  0.2536E+02
 MRCHDU: Convergence failed at  51  side 1    Res =  0.2806E+02
 MRCHDU: Convergence failed at  52  side 1    Res =  0.2981E+02
 MRCHDU: Convergence failed at  53  side 1    Res =  0.3171E+02
 MRCHDU: Convergence failed at  54  side 1    Res =  0.7202E+02
 MRCHDU: Convergence failed at  55  side 1    Res =  0.7653E+02
 MRCHDU: Convergence failed at  56  side 1    Res =  0.8023E+02
 MRCHDU: Convergence failed at  57  side 1    Res =  0.7893E+02
 MRCHDU: Convergence failed at  58  side 1    Res =  0.6234E+02
 MRCHDU: Convergence failed at  59  side 1    Res =  0.6952E+02
 MRCHDU: Convergence failed at  60  side 1    Res =  0.8961E+02
 MRCHDU: Convergence failed at  61  side 1    Res =  0.1080E+03
 MRCHDU: Convergence failed at  62  side 1    Res =  0.1293E+03
 MRCHDU: Convergence failed at  63  side 1    Res =  0.8403E+02
 MRCHDU: Convergence failed at  64  side 1    Res =  0.9259E+02
 MRCHDU: Convergence failed at  65  side 1    Res =  0.5595E+02
 MRCHDU: Convergence failed at  66  side 1    Res =  0.5876E+02
 MRCHDU: Convergence failed at  67  side 1    Res =  0.6129E+02
 MRCHDU: Convergence failed at  68  side 1    Res =  0.6321E+02
 MRCHDU: Convergence failed at  69  side 1    Res =  0.6494E+02
 MRCHDU: Convergence failed at  70  side 1    Res =  0.6638E+02
 MRCHDU: Convergence failed at  71  side 1    Res =  0.6766E+02
 MRCHDU: Convergence failed at  72  side 1    Res =  0.6620E+02
 MRCHDU: Convergence failed at  73  side 1    Res =  0.6694E+02
 MRCHDU: Convergence failed at  74  side 1    Res =  0.7656E+02
 MRCHDU: Convergence failed at  75  side 1    Res =  0.7167E+02
 MRCHDU: Convergence failed at  76  side 1    Res =  0.7538E+02
 MRCHDU: Convergence failed at  77  side 1    Res =  0.9564E+02
 MRCHDU: Convergence failed at  78  side 1    Res =  0.8619E+02
 MRCHDU: Convergence failed at  79  side 1    Res =  0.5698E+02
 MRCHDU: Convergence failed at  80  side 1    Res =  0.5859E+02
 MRCHDU: Convergence failed at  81  side 1    Res =  0.5992E+02
 MRCHDU: Convergence failed at  82  side 1    Res =  0.6044E+02
 MRCHDU: Convergence failed at  83  side 1    Res =  0.5975E+02
 MRCHDU: Convergence failed at  84  side 1    Res =  0.5737E+02
 MRCHDU: Convergence failed at  85  side 1    Res =  0.8361E+02
 MRCHDU: Convergence failed at  86  side 1    Res =  0.7981E+02
 MRCHDU: Convergence failed at  87  side 1    Res =  0.8424E+03
 MRCHDU: Convergence failed at  88  side 1    Res =  0.1698E+03
 MRCHDU: Convergence failed at  89  side 1    Res =  0.3253E+02
 MRCHDU: Convergence failed at  90  side 1    Res =  0.4353E+02
 MRCHDU: Convergence failed at  91  side 1    Res =  0.3240E+02
 MRCHDU: Convergence failed at  92  side 1    Res =  0.8314E+02
 MRCHDU: Convergence failed at  93  side 1    Res =  0.8725E+02
 MRCHDU: Convergence failed at  94  side 1    Res =  0.7572E+02
 MRCHDU: Convergence failed at  95  side 1    Res =  0.1060E+03
 MRCHDU: Convergence failed at  96  side 1    Res =  0.8324E+02
 MRCHDU: Convergence failed at  97  side 1    Res =  0.5983E+03
 MRCHDU: Convergence failed at  98  side 1    Res =  0.1823E+04
 MRCHDU: Convergence failed at  99  side 1    Res =  0.1350E+04
 MRCHDU: Convergence failed at 100  side 1    Res =  0.2871E+03
 MRCHDU: Convergence failed at 101  side 1    Res =  0.7675E+03
 MRCHDU: Convergence failed at 102  side 1    Res =  0.1749E+03
 MRCHDU: Convergence failed at 103  side 1    Res =  0.1044E+03
 Side 1  free  transition at x/c =  0.0246   23
 Side 2 forced transition at x/c =  0.9998   82

   2   rms: 0.2642E+01   max: 0.1058E+02   D at   86  2   RLX: 0.049
       a =  5.500      CL =  4.0389
      Cm = -0.9642     CD =  0.00459   =>   CDf =  0.00129    CDp =  0.00330

 MRCHDU: Convergence failed at  32  side 1    Res =  0.5129E+00
 MRCHDU: Convergence failed at  33  side 1    Res =  0.4981E+00
 MRCHDU: Convergence failed at  34  side 1    Res =  0.4830E+00
 MRCHDU: Convergence failed at  35  side 1    Res =  0.4667E+00
 MRCHDU: Convergence failed at  36  side 1    Res =  0.4493E+00
 MRCHDU: Convergence failed at  37  side 1    Res =  0.4308E+00
 MRCHDU: Convergence failed at  38  side 1    Res =  0.4081E+00
 MRCHDU: Convergence failed at  39  side 1    Res =  0.3826E+00
 MRCHDU: Convergence failed at  40  side 1    Res =  0.3522E+00
 MRCHDU: Convergence failed at  41  side 1    Res =  0.3135E+00
 MRCHDU: Convergence failed at  42  side 1    Res =  0.2627E+00
 MRCHDU: Convergence failed at  43  side 1    Res =  0.1966E+00
 MRCHDU: Convergence failed at  44  side 1    Res =  0.1027E+00
 MRCHDU: Convergence failed at 103  side 1    Res =  0.1314E+00
 Side 1  free  transition at x/c =  0.0238   23
 Side 2 forced transition at x/c =  0.9998   82

   3   rms: 0.8666E+00   max: 0.9082E+00   D at   90  2   RLX: 0.168
       a =  5.500      CL =  2.6683
      Cm = -0.5818     CD =  0.05702   =>   CDf =  0.00273    CDp =  0.05429

 MRCHDU: Convergence failed at  45  side 1    Res =  0.7930E+00
 MRCHDU: Convergence failed at  46  side 1    Res =  0.1435E+01
 MRCHDU: Convergence failed at  47  side 1    Res =  0.1020E+01
 MRCHDU: Convergence failed at  48  side 1    Res =  0.9844E+00
 MRCHDU: Convergence failed at  49  side 1    Res =  0.9435E+00
 MRCHDU: Convergence failed at  50  side 1    Res =  0.9006E+00
 MRCHDU: Convergence failed at  51  side 1    Res =  0.8566E+00
 MRCHDU: Convergence failed at  52  side 1    Res =  0.8112E+00
 MRCHDU: Convergence failed at  53  side 1    Res =  0.7651E+00
 MRCHDU: Convergence failed at  54  side 1    Res =  0.7178E+00
 MRCHDU: Convergence failed at  55  side 1    Res =  0.6686E+00
 MRCHDU: Convergence failed at  56  side 1    Res =  0.6173E+00
 MRCHDU: Convergence failed at  57  side 1    Res =  0.5624E+00
 MRCHDU: Convergence failed at  58  side 1    Res =  0.5035E+00
 MRCHDU: Convergence failed at  59  side 1    Res =  0.4376E+00
 MRCHDU: Convergence failed at  60  side 1    Res =  0.3570E+00
 MRCHDU: Convergence failed at  61  side 1    Res =  0.2525E+00
 MRCHDU: Convergence failed at  62  side 1    Res =  0.6748E-01
 MRCHDU: Convergence failed at  63  side 1    Res =  0.4546E-03
 Side 1  free  transition at x/c =  0.0299   24
 Side 2 forced transition at x/c =  0.9998   82

   4   rms: 0.1518E+03   max: -.1509E+04   T at   24  1   RLX: 0.000
       a =  5.500      CL =  2.2388
      Cm = -0.5044     CD =  0.05729   =>   CDf =  0.00262    CDp =  0.05468

 MRCHDU: Convergence failed at  62  side 1    Res =  0.5562E+00
 MRCHDU: Convergence failed at  63  side 1    Res =  0.1354E+01
 MRCHDU: Convergence failed at  64  side 1    Res =  0.6377E+00
 MRCHDU: Convergence failed at  65  side 1    Res =  0.6046E+00
 MRCHDU: Convergence failed at  66  side 1    Res =  0.5583E+00
 MRCHDU: Convergence failed at  67  side 1    Res =  0.5077E+00
 MRCHDU: Convergence failed at  68  side 1    Res =  0.4504E+00
 MRCHDU: Convergence failed at  69  side 1    Res =  0.3807E+00
 MRCHDU: Convergence failed at  70  side 1    Res =  0.2848E+00
 MRCHDU: Convergence failed at  71  side 1    Res =  0.1109E+00
 Side 1  free  transition at x/c =  0.0315   24
 Side 2 forced transition at x/c =  0.9998   82

   5   rms: 0.6114E+00   max: 0.1669E+01   C at   82  2   RLX: 0.347
       a =  5.500      CL =  1.7405
      Cm = -0.2998     CD =  0.05210   =>   CDf =  0.00235    CDp =  0.04975

 Side 1  free  transition at x/c =  0.0278   24
 Side 2 forced transition at x/c =  0.9998   82

   6   rms: 0.4696E+00   max: -.2031E+01   T at   24  1   RLX: 0.246
       a =  5.500      CL =  1.5407
      Cm = -0.2358     CD =  0.06780   =>   CDf =  0.00239    CDp =  0.06541

 Side 1  free  transition at x/c =  0.0313   24
 Side 2 forced transition at x/c =  0.9998   82
 idif Ue xi dudx           1  0.12935670      4.44602966E-03   29.094879    
 Uenew xinew           2  7.29747117E-03  2.50816345E-04

   7   rms: 0.7663E+00   max: 0.5496E+01   T at   24  1   RLX: 0.115
       a =  5.500      CL =  1.5222
      Cm = -0.2193     CD =  0.08447   =>   CDf =  0.00274    CDp =  0.08173

 Side 1  free  transition at x/c =  0.0284   23
 Side 2 forced transition at x/c =  0.9998   83

   8   rms: 0.4459E+00   max: -.2975E+01   T at    2  2   RLX: 0.168
       a =  5.500      CL =  1.4568
      Cm = -0.2063     CD =  0.08388   =>   CDf =  0.00239    CDp =  0.08149

 Side 1  free  transition at x/c =  0.0311   23
 Side 2 forced transition at x/c =  0.9998   83

   9   rms: 0.6744E+00   max: -.2672E+01   T at   23  1   RLX: 0.187
       a =  5.500      CL =  1.3364
      Cm = -0.1707     CD =  0.07549   =>   CDf =  0.00246    CDp =  0.07304

 Side 1  free  transition at x/c =  0.0373   24
 Side 2 forced transition at x/c =  0.9998   83

  10   rms: 0.3680E+01   max: -.3052E+02   T at   24  1   RLX: 0.016
       a =  5.500      CL =  1.2331
      Cm = -0.1551     CD =  0.06088   =>   CDf =  0.00381    CDp =  0.05707

 Side 1  free  transition at x/c =  0.0420   25
 Side 2 forced transition at x/c =  0.9998   83

  11   rms: 0.4439E+00   max: -.2088E+01   D at   34  1   RLX: 0.239
       a =  5.500      CL =  1.1939
      Cm = -0.1336     CD =  0.04108   =>   CDf =  0.00568    CDp =  0.03540

 Side 1  free  transition at x/c =  0.0464   25
 Side 2 forced transition at x/c =  0.9998   83

  12   rms: 0.1232E+01   max: -.1134E+02   T at   25  1   RLX: 0.044
       a =  5.500      CL =  1.1854
      Cm = -0.1314     CD =  0.04230   =>   CDf =  0.00619    CDp =  0.03611

 Side 1  free  transition at x/c =  0.0589   26
 Side 2 forced transition at x/c =  0.9998   83

  13   rms: 0.4777E+00   max: -.5590E+01   C at   26  1   RLX: 0.089
       a =  5.500      CL =  1.1981
      Cm = -0.1201     CD =  0.03663   =>   CDf =  0.00670    CDp =  0.02993

 Side 1  free  transition at x/c =  0.0484   25
 Side 2 forced transition at x/c =  0.9998   83

  14   rms: 0.3805E+00   max: -.3030E+01   D at    3  2   RLX: 0.165
       a =  5.500      CL =  1.2159
      Cm = -0.1139     CD =  0.03343   =>   CDf =  0.00661    CDp =  0.02682

 Side 1  free  transition at x/c =  0.0407   26
 Side 2 forced transition at x/c =  0.9998   82

  15   rms: 0.4319E+00   max: -.1864E+01   D at   80  1   RLX: 0.268
       a =  5.500      CL =  1.2243
      Cm = -0.0997     CD =  0.02771   =>   CDf =  0.00711    CDp =  0.02060
 VISCAL:  Convergence failed
 Calculating wake trajectory ...
 Calculating source influence matrix ...

 Solving BL system ...

 MRCHDU: Convergence failed at  26  side 1    Res =  0.1590E+02
 MRCHDU: Convergence failed at  27  side 1    Res =  0.1741E+01
 MRCHDU: Convergence failed at  28  side 1    Res =  0.2305E+01
 MRCHDU: Convergence failed at  29  side 1    Res =  0.4786E+01
 MRCHDU: Convergence failed at  30  side 1    Res =  0.9998E+01
 MRCHDU: Convergence failed at  31  side 1    Res =  0.1605E+02
 MRCHDU: Convergence failed at  32  side 1    Res =  0.1276E+02
 MRCHDU: Convergence failed at  33  side 1    Res =  0.1198E+02
 MRCHDU: Convergence failed at  34  side 1    Res =  0.1386E+02
 MRCHDU: Convergence failed at  35  side 1    Res =  0.5036E+02
 MRCHDU: Convergence failed at  36  side 1    Res =  0.1541E+02
 MRCHDU: Convergence failed at  37  side 1    Res =  0.1328E+02
 MRCHDU: Convergence failed at  38  side 1    Res =  0.1181E+02
 MRCHDU: Convergence failed at  39  side 1    Res =  0.9366E+01
 MRCHDU: Convergence failed at  40  side 1    Res =  0.6746E+01
 MRCHDU: Convergence failed at  41  side 1    Res =  0.1919E+03
 MRCHDU: Convergence failed at  42  side 1    Res =  0.2169E+04
 MRCHDU: Convergence failed at  43  side 1    Res =  0.1355E+02
 MRCHDU: Convergence failed at  44  side 1    Res =  0.1313E+02
 MRCHDU: Convergence failed at  45  side 1    Res =  0.1556E+02
 MRCHDU: Convergence failed at  46  side 1    Res =  0.1660E+02
 MRCHDU: Convergence failed at  47  side 1    Res =  0.2146E+02
 MRCHDU: Convergence failed at  48  side 1    Res =  0.1139E+02
 MRCHDU: Convergence failed at  49  side 1    Res =  0.1134E+02
 MRCHDU: Convergence failed at  50  side 1    Res =  0.1758E+02
 MRCHDU: Convergence failed at  51  side 1    Res =  0.1820E+02
 MRCHDU: Convergence failed at  52  side 1    Res =  0.1940E+02
 MRCHDU: Convergence failed at  53  side 1    Res =  0.2013E+02
 MRCHDU: Convergence failed at  54  side 1    Res =  0.3313E+02
 MRCHDU: Convergence failed at  55  side 1    Res =  0.1634E+03
 MRCHDU: Convergence failed at  56  side 1    Res =  0.8794E+02
 MRCHDU: Convergence failed at  57  side 1    Res =  0.2737E+03
 MRCHDU: Convergence failed at  58  side 1    Res =  0.9483E+02
 MRCHDU: Convergence failed at  59  side 1    Res =  0.6372E+02
 MRCHDU: Convergence failed at  60  side 1    Res =  0.3821E+02
 MRCHDU: Convergence failed at  61  side 1    Res =  0.3105E+02
 MRCHDU: Convergence failed at  62  side 1    Res =  0.2888E+02
 MRCHDU: Convergence failed at  63  side 1    Res =  0.2841E+02
 MRCHDU: Convergence failed at  64  side 1    Res =  0.2979E+02
 MRCHDU: Convergence failed at  65  side 1    Res =  0.3326E+02
 MRCHDU: Convergence failed at  66  side 1    Res =  0.4974E+02
 MRCHDU: Convergence failed at  67  side 1    Res =  0.4471E+02
 MRCHDU: Convergence failed at  68  side 1    Res =  0.3482E+02
 MRCHDU: Convergence failed at  69  side 1    Res =  0.2423E+02
 MRCHDU: Convergence failed at  70  side 1    Res =  0.1438E+02
 MRCHDU: Convergence failed at  71  side 1    Res =  0.1785E+02
 MRCHDU: Convergence failed at  72  side 1    Res =  0.5959E+03
 MRCHDU: Convergence failed at  73  side 1    Res =  0.2181E+03
 MRCHDU: Convergence failed at  74  side 1    Res =  0.1547E+02
 MRCHDU: Convergence failed at  75  side 1    Res =  0.1413E+03
 MRCHDU: Convergence failed at  76  side 1    Res =  0.5211E+02
 MRCHDU: Convergence failed at  77  side 1    Res =  0.3599E+02
 MRCHDU: Convergence failed at  78  side 1    Res =  0.3225E+02
 MRCHDU: Convergence failed at  79  side 1    Res =  0.3298E+02
 MRCHDU: Convergence failed at  80  side 1    Res =  0.3609E+02
 MRCHDU: Convergence failed at  81  side 1    Res =  0.2910E+02
 MRCHDU: Convergence failed at  82  side 1    Res =  0.9363E+02
 MRCHDU: Convergence failed at  83  side 1    Res =  0.1654E+03
 MRCHDU: Convergence failed at  84  side 1    Res =  0.7773E+02
 MRCHDU: Convergence failed at  85  side 1    Res =  0.2632E+02
 MRCHDU: Convergence failed at  86  side 1    Res =  0.2412E+02
 MRCHDU: Convergence failed at  87  side 1    Res =  0.2546E+02
 MRCHDU: Convergence failed at  88  side 1    Res =  0.9922E+02
 MRCHDU: Convergence failed at  89  side 1    Res =  0.7226E+02
 MRCHDU: Convergence failed at  90  side 1    Res =  0.2831E+02
 MRCHDU: Convergence failed at  91  side 1    Res =  0.1892E+02
 MRCHDU: Convergence failed at  92  side 1    Res =  0.2811E+02
 MRCHDU: Convergence failed at  93  side 1    Res =  0.5879E+02
 MRCHDU: Convergence failed at  94  side 1    Res =  0.7793E+02
 MRCHDU: Convergence failed at  95  side 1    Res =  0.9441E+02
 MRCHDU: Convergence failed at  96  side 1    Res =  0.1041E+03
 MRCHDU: Convergence failed at  97  side 1    Res =  0.2808E+02
 MRCHDU: Convergence failed at  98  side 1    Res =  0.1820E+02
 MRCHDU: Convergence failed at  99  side 1    Res =  0.1903E+02
 MRCHDU: Convergence failed at 100  side 1    Res =  0.2735E+02
 MRCHDU: Convergence failed at 101  side 1    Res =  0.2903E+02
 MRCHDU: Convergence failed at 102  side 1    Res =  0.2052E+02
 MRCHDU: Convergence failed at 103  side 1    Res =  0.2554E+02
 MRCHDU: Convergence failed at  94  side 2    Res =  0.3469E+01
 MRCHDU: Convergence failed at  95  side 2    Res =  0.1553E+01
 MRCHDU: Convergence failed at  96  side 2    Res =  0.3124E+02
 Side 1  free  transition at x/c =  0.0370   25
 Side 2 forced transition at x/c =  0.9998   82

   1   rms: 0.1680E+01   max: 0.5903E+01   D at   90  2   RLX: 0.254
       a =  6.000      CL =  2.6007
      Cm = -0.5591     CD =  0.01227   =>   CDf =  0.00182    CDp =  0.01045

 MRCHDU: Convergence failed at  29  side 1    Res =  0.2973E-01
 MRCHDU: Convergence failed at  90  side 2    Res =  0.2233E+01
 MRCHDU: Convergence failed at  91  side 2    Res =  0.7184E+01
 MRCHDU: Convergence failed at  92  side 2    Res =  0.2613E+01
 MRCHDU: Convergence failed at  93  side 2    Res =  0.2014E+01
 Side 1  free  transition at x/c =  0.0307   24
 Side 2 forced transition at x/c =  0.9998   82

   2   rms: 0.5673E+00   max: 0.1028E+01   C at   82  2   RLX: 0.341
       a =  6.000      CL =  1.7585
      Cm = -0.2993     CD =  0.05411   =>   CDf =  0.00390    CDp =  0.05021

 MRCHDU: Convergence failed at  39  side 1    Res =  0.5151E-02
 MRCHDU: Convergence failed at  68  side 1    Res =  0.1011E+00
 MRCHDU: Convergence failed at  69  side 1    Res =  0.5663E+00
 Side 1  free  transition at x/c =  0.0340   25
 Side 2 forced transition at x/c =  0.9998   82

   3   rms: 0.5055E+00   max: -.1626E+01   D at   26  1   RLX: 0.308
       a =  6.000      CL =  1.4558
      Cm = -0.1612     CD =  0.05900   =>   CDf =  0.00381    CDp =  0.05519

 MRCHDU: Convergence failed at  39  side 1    Res =  0.1833E-01
 Side 1  free  transition at x/c =  0.0331   25
 Side 2 forced transition at x/c =  0.9998   82

   4   rms: 0.8132E+00   max: -.3311E+01   D at   27  1   RLX: 0.151
       a =  6.000      CL =  1.4054
      Cm = -0.1190     CD =  0.05706   =>   CDf =  0.00399    CDp =  0.05307

 MRCHDU: Convergence failed at  28  side 1    Res =  0.1635E+01
 MRCHDU: Convergence failed at  39  side 1    Res =  0.2487E-04
 Side 1  free  transition at x/c =  0.0280   24
 Side 2 forced transition at x/c =  0.9998   82

   5   rms: 0.8373E+00   max: -.2680E+01   D at   57  1   RLX: 0.187
       a =  6.000      CL =  1.4316
      Cm = -0.1060     CD =  0.04477   =>   CDf =  0.00408    CDp =  0.04069

 Side 1  free  transition at x/c =  0.0253   23
 Side 2 forced transition at x/c =  0.9998   82

   6   rms: 0.1835E+01   max: 0.7116E+01   T at   23  1   RLX: 0.078
       a =  6.000      CL =  1.5074
      Cm = -0.1045     CD =  0.03905   =>   CDf =  0.00430    CDp =  0.03474

 MRCHDU: Convergence failed at  67  side 1    Res =  0.1348E+01
 MRCHDU: Convergence failed at  68  side 1    Res =  0.1960E+01
 MRCHDU: Convergence failed at  69  side 1    Res =  0.2149E+01
 MRCHDU: Convergence failed at  70  side 1    Res =  0.2246E+01
 MRCHDU: Convergence failed at  71  side 1    Res =  0.4483E+02
 MRCHDU: Convergence failed at  72  side 1    Res =  0.1124E+02
 MRCHDU: Convergence failed at  73  side 1    Res =  0.8235E+02
 MRCHDU: Convergence failed at  74  side 1    Res =  0.9048E+01
 MRCHDU: Convergence failed at  75  side 1    Res =  0.5122E+01
 MRCHDU: Convergence failed at  76  side 1    Res =  0.3922E+01
 MRCHDU: Convergence failed at  77  side 1    Res =  0.3040E+01
 MRCHDU: Convergence failed at  78  side 1    Res =  0.2067E+01
 MRCHDU: Convergence failed at  79  side 1    Res =  0.1800E+01
 MRCHDU: Convergence failed at  80  side 1    Res =  0.2398E+01
 MRCHDU: Convergence failed at  81  side 1    Res =  0.3639E+01
 MRCHDU: Convergence failed at  82  side 1    Res =  0.8208E+01
 MRCHDU: Convergence failed at  83  side 1    Res =  0.2602E+02
 MRCHDU: Convergence failed at  84  side 1    Res =  0.5899E+01
 MRCHDU: Convergence failed at  85  side 1    Res =  0.3307E+01
 MRCHDU: Convergence failed at  86  side 1    Res =  0.2319E+01
 MRCHDU: Convergence failed at  87  side 1    Res =  0.1892E+01
 MRCHDU: Convergence failed at  88  side 1    Res =  0.1827E+01
 MRCHDU: Convergence failed at  89  side 1    Res =  0.2543E+01
 MRCHDU: Convergence failed at  90  side 1    Res =  0.4912E+01
 MRCHDU: Convergence failed at  91  side 1    Res =  0.7352E+02
 MRCHDU: Convergence failed at  92  side 1    Res =  0.4927E+01
 MRCHDU: Convergence failed at  93  side 1    Res =  0.2644E+01
 MRCHDU: Convergence failed at  94  side 1    Res =  0.1879E+01
 MRCHDU: Convergence failed at  95  side 1    Res =  0.1442E+01
 MRCHDU: Convergence failed at  96  side 1    Res =  0.1596E+01
 MRCHDU: Convergence failed at  97  side 1    Res =  0.1940E+01
 MRCHDU: Convergence failed at  98  side 1    Res =  0.2614E+01
 MRCHDU: Convergence failed at  99  side 1    Res =  0.3771E+01
 MRCHDU: Convergence failed at 100  side 1    Res =  0.1061E+02
 MRCHDU: Convergence failed at 101  side 1    Res =  0.3155E+02
 MRCHDU: Convergence failed at 102  side 1    Res =  0.3611E+01
 MRCHDU: Convergence failed at 103  side 1    Res =  0.2525E+01
 MRCHDU: Convergence failed at 104  side 1    Res =  0.2643E+01
 Side 1  free  transition at x/c =  0.0224   24
 Side 2 forced transition at x/c =  0.9998   81

   7   rms: 0.6592E+00   max: -.2196E+01   D at   56  1   RLX: 0.228
       a =  6.000      CL =  1.6325
      Cm = -0.1771     CD =  0.02686   =>   CDf =  0.00474    CDp =  0.02212

 Side 1  free  transition at x/c =  0.0220   24
 Side 2 forced transition at x/c =  0.9998   81

   8   rms: 0.6822E+00   max: -.2441E+01   D at   45  1   RLX: 0.205
       a =  6.000      CL =  1.6272
      Cm = -0.1657     CD =  0.02245   =>   CDf =  0.00677    CDp =  0.01568

 MRCHDU: Convergence failed at  42  side 1    Res =  0.4410E+00
 MRCHDU: Convergence failed at  43  side 1    Res =  0.6317E+00
 Side 1  free  transition at x/c =  0.0203   24
 Side 2 forced transition at x/c =  0.9998   81

   9   rms: 0.3336E+00   max: -.1024E+01   D at   65  1   RLX: 0.488
       a =  6.000      CL =  1.6191
      Cm = -0.1485     CD =  0.02536   =>   CDf =  0.00816    CDp =  0.01719

 MRCHDU: Convergence failed at  24  side 1    Res =  0.1758E+02
 MRCHDU: Convergence failed at  25  side 1    Res =  0.7094E+02
 MRCHDU: Convergence failed at  26  side 1    Res =  0.1467E+02
 MRCHDU: Convergence failed at  27  side 1    Res =  0.2562E+02
 MRCHDU: Convergence failed at  28  side 1    Res =  0.3475E+02
 MRCHDU: Convergence failed at  29  side 1    Res =  0.2063E+02
 MRCHDU: Convergence failed at  30  side 1    Res =  0.3734E+02
 MRCHDU: Convergence failed at  31  side 1    Res =  0.3784E+02
 MRCHDU: Convergence failed at  32  side 1    Res =  0.6866E+02
 MRCHDU: Convergence failed at  33  side 1    Res =  0.6673E+02
 MRCHDU: Convergence failed at  34  side 1    Res =  0.5376E+02
 MRCHDU: Convergence failed at  35  side 1    Res =  0.6561E+02
 MRCHDU: Convergence failed at  36  side 1    Res =  0.4753E+02
 MRCHDU: Convergence failed at  37  side 1    Res =  0.5105E+02
 MRCHDU: Convergence failed at  38  side 1    Res =  0.2789E+02
 MRCHDU: Convergence failed at  39  side 1    Res =  0.4122E+02
 MRCHDU: Convergence failed at  40  side 1    Res =  0.4113E+02
 MRCHDU: Convergence failed at  41  side 1    Res =  0.1228E+03
 MRCHDU: Convergence failed at  42  side 1    Res =  0.2620E+03
 MRCHDU: Convergence failed at  43  side 1    Res =  0.8357E+03
 MRCHDU: Convergence failed at  44  side 1    Res =  0.8475E+02
 MRCHDU: Convergence failed at  45  side 1    Res =  0.1427E+03
 MRCHDU: Convergence failed at  46  side 1    Res =  0.1658E+03
 MRCHDU: Convergence failed at  47  side 1    Res =  0.1502E+03
 MRCHDU: Convergence failed at  48  side 1    Res =  0.1254E+03
 MRCHDU: Convergence failed at  49  side 1    Res =  0.1051E+03
 MRCHDU: Convergence failed at  50  side 1    Res =  0.9306E+02
 MRCHDU: Convergence failed at  51  side 1    Res =  0.5677E+03
 MRCHDU: Convergence failed at  52  side 1    Res =  0.3142E+03
 MRCHDU: Convergence failed at  53  side 1    Res =  0.2166E+03
 MRCHDU: Convergence failed at  54  side 1    Res =  0.4414E+03
 MRCHDU: Convergence failed at  55  side 1    Res =  0.2746E+03
 MRCHDU: Convergence failed at  56  side 1    Res =  0.6593E+03
 MRCHDU: Convergence failed at  57  side 1    Res =  0.6437E+04
 MRCHDU: Convergence failed at  58  side 1    Res =  0.8942E+03
 MRCHDU: Convergence failed at  59  side 1    Res =  0.4113E+03
 MRCHDU: Convergence failed at  60  side 1    Res =  0.2814E+03
 MRCHDU: Convergence failed at  61  side 1    Res =  0.1857E+03
 MRCHDU: Convergence failed at  62  side 1    Res =  0.2282E+04
 MRCHDU: Convergence failed at  63  side 1    Res =  0.6866E+03
 MRCHDU: Convergence failed at  64  side 1    Res =  0.2899E+02
 MRCHDU: Convergence failed at  65  side 1    Res =  0.6555E+02
 MRCHDU: Convergence failed at  66  side 1    Res =  0.1499E+03
 MRCHDU: Convergence failed at  67  side 1    Res =  0.1635E+03
 MRCHDU: Convergence failed at  68  side 1    Res =  0.1776E+03
 MRCHDU: Convergence failed at  69  side 1    Res =  0.1920E+03
 MRCHDU: Convergence failed at  70  side 1    Res =  0.2955E+03
 MRCHDU: Convergence failed at  71  side 1    Res =  0.8033E+02
 MRCHDU: Convergence failed at  72  side 1    Res =  0.2391E+04
 MRCHDU: Convergence failed at  73  side 1    Res =  0.1485E+04
 MRCHDU: Convergence failed at  74  side 1    Res =  0.1028E+04
 MRCHDU: Convergence failed at  75  side 1    Res =  0.6026E+03
 MRCHDU: Convergence failed at  76  side 1    Res =  0.6360E+03
 MRCHDU: Convergence failed at  77  side 1    Res =  0.4348E+02
 MRCHDU: Convergence failed at  78  side 1    Res =  0.4895E+02
 MRCHDU: Convergence failed at  79  side 1    Res =  0.4887E+02
 MRCHDU: Convergence failed at  80  side 1    Res =  0.4956E+02
 MRCHDU: Convergence failed at  81  side 1    Res =  0.4179E+02
 MRCHDU: Convergence failed at  82  side 1    Res =  0.4214E+02
 MRCHDU: Convergence failed at  83  side 1    Res =  0.4228E+02
 MRCHDU: Convergence failed at  84  side 1    Res =  0.4215E+02
 MRCHDU: Convergence failed at  85  side 1    Res =  0.4160E+02
 MRCHDU: Convergence failed at  86  side 1    Res =  0.4832E+02
 MRCHDU: Convergence failed at  87  side 1    Res =  0.4626E+02
 MRCHDU: Convergence failed at  88  side 1    Res =  0.3510E+03
 MRCHDU: Convergence failed at  89  side 1    Res =  0.2694E+04
 MRCHDU: Convergence failed at  90  side 1    Res =  0.7933E+02
 MRCHDU: Convergence failed at  91  side 1    Res =  0.1734E+03
 MRCHDU: Convergence failed at  92  side 1    Res =  0.2091E+03
 MRCHDU: Convergence failed at  93  side 1    Res =  0.2538E+03
 MRCHDU: Convergence failed at  94  side 1    Res =  0.3163E+03
 MRCHDU: Convergence failed at  95  side 1    Res =  0.4722E+03
 MRCHDU: Convergence failed at  96  side 1    Res =  0.1773E+03
 MRCHDU: Convergence failed at  97  side 1    Res =  0.2231E+03
 MRCHDU: Convergence failed at  98  side 1    Res =  0.2931E+03
 MRCHDU: Convergence failed at  99  side 1    Res =  0.4090E+03
 MRCHDU: Convergence failed at 100  side 1    Res =  0.6934E+03
 MRCHDU: Convergence failed at 101  side 1    Res =  0.2363E+04
 MRCHDU: Convergence failed at 102  side 1    Res =  0.3880E+03
 MRCHDU: Convergence failed at 103  side 1    Res =  0.1901E+03
 MRCHDU: Convergence failed at 104  side 1    Res =  0.1045E+03
 Side 1  free  transition at x/c =  0.0190   23
 Side 2 forced transition at x/c =  0.9998   81

  10   rms: 0.2490E+01   max: 0.1071E+02   D at   86  2   RLX: 0.097
       a =  6.000      CL =  4.9367
      Cm = -1.1844     CD =  0.00572   =>   CDf =  0.00088    CDp =  0.00484

 MRCHDU: Convergence failed at  51  side 1    Res =  0.4039E+00
 MRCHDU: Convergence failed at  52  side 1    Res =  0.3769E+00
 MRCHDU: Convergence failed at  53  side 1    Res =  0.3457E+00
 MRCHDU: Convergence failed at  54  side 1    Res =  0.3106E+00
 MRCHDU: Convergence failed at  55  side 1    Res =  0.2703E+00
 MRCHDU: Convergence failed at  56  side 1    Res =  0.2260E+00
 MRCHDU: Convergence failed at  57  side 1    Res =  0.1796E+00
 MRCHDU: Convergence failed at  58  side 1    Res =  0.1270E+00
 MRCHDU: Convergence failed at  59  side 1    Res =  0.6979E-01
 MRCHDU: Convergence failed at  60  side 1    Res =  0.3509E-02
 MRCHDU: Convergence failed at  86  side 2    Res =  0.1438E+02
 MRCHDU: Convergence failed at  87  side 2    Res =  0.3434E+01
 MRCHDU: Convergence failed at  88  side 2    Res =  0.4710E+01
 MRCHDU: Convergence failed at  89  side 2    Res =  0.9432E+01
 MRCHDU: Convergence failed at  90  side 2    Res =  0.2965E+01
 MRCHDU: Convergence failed at  91  side 2    Res =  0.2647E+01
 Side 1  free  transition at x/c =  0.0192   23
 Side 2 forced transition at x/c =  0.9998   81

  11   rms: 0.2144E+01   max: -.7443E+01   T at   24  1   RLX: 0.067
       a =  6.000      CL =  3.8187
      Cm = -0.9447     CD =  0.05375   =>   CDf =  0.00253    CDp =  0.05123

 MRCHDU: Convergence failed at  60  side 1    Res =  0.8343E-02
 Side 1  free  transition at x/c =  0.0196   23
 Side 2 forced transition at x/c =  0.9998   81

  12   rms: 0.1077E+01   max: 0.2389E+01   C at   81  2   RLX: 0.195
       a =  6.000      CL =  3.2234
      Cm = -0.7456     CD =  0.06380   =>   CDf =  0.00245    CDp =  0.06134

 Side 1  free  transition at x/c =  0.0198   24
 Side 2 forced transition at x/c =  0.9998   81

  13   rms: 0.1429E+01   max: 0.7069E+01   T at   24  1   RLX: 0.100
       a =  6.000      CL =  2.8639
      Cm = -0.6625     CD =  0.08527   =>   CDf =  0.00249    CDp =  0.08278

 MRCHDU: Convergence failed at  59  side 1    Res =  0.1140E+00
 MRCHDU: Convergence failed at  60  side 1    Res =  0.6562E+00
 Side 1  free  transition at x/c =  0.0240   24
 Side 2 forced transition at x/c =  0.9998   81
 idif Ue xi dudx           1  0.13376369      5.52344322E-03   24.217445    
 Uenew xinew           2  7.02682277E-03  2.90155411E-04

  14   rms: 0.8679E+00   max: -.3268E+01   T at   24  1   RLX: 0.153
       a =  6.000      CL =  2.1655
      Cm = -0.3802     CD =  0.09634   =>   CDf =  0.00252    CDp =  0.09382

 Side 1  free  transition at x/c =  0.0323   24
 Side 2 forced transition at x/c =  0.9998   82

  15   rms: 0.8888E+00   max: 0.4524E+01   C at   82  2   RLX: 0.201
       a =  6.000      CL =  1.7343
      Cm = -0.2309     CD =  0.08315   =>   CDf =  0.00188    CDp =  0.08126
 VISCAL:  Convergence failed
 Calculating wake trajectory ...
 Calculating source influence matrix ...

 Solving BL system ...

 MRCHDU: Convergence failed at  27  side 1    Res =  0.2663E+01
 MRCHDU: Convergence failed at  28  side 1    Res =  0.1742E+02
 MRCHDU: Convergence failed at  29  side 1    Res =  0.1634E+02
 MRCHDU: Convergence failed at  30  side 1    Res =  0.4819E+01
 MRCHDU: Convergence failed at  31  side 1    Res =  0.2821E+01
 MRCHDU: Convergence failed at  32  side 1    Res =  0.4348E+01
 MRCHDU: Convergence failed at  33  side 1    Res =  0.8380E+01
 MRCHDU: Convergence failed at  34  side 1    Res =  0.2900E+02
 MRCHDU: Convergence failed at  35  side 1    Res =  0.2714E+02
 MRCHDU: Convergence failed at  36  side 1    Res =  0.9854E+01
 MRCHDU: Convergence failed at  37  side 1    Res =  0.6895E+01
 MRCHDU: Convergence failed at  38  side 1    Res =  0.5495E+01
 MRCHDU: Convergence failed at  39  side 1    Res =  0.4958E+01
 MRCHDU: Convergence failed at  40  side 1    Res =  0.4652E+01
 MRCHDU: Convergence failed at  41  side 1    Res =  0.4520E+01
 MRCHDU: Convergence failed at  42  side 1    Res =  0.1558E+01
 MRCHDU: Convergence failed at  43  side 1    Res =  0.2198E+01
 MRCHDU: Convergence failed at  44  side 1    Res =  0.3570E+01
 MRCHDU: Convergence failed at  45  side 1    Res =  0.5020E+01
 MRCHDU: Convergence failed at  46  side 1    Res =  0.8080E+01
 MRCHDU: Convergence failed at  47  side 1    Res =  0.8058E+01
 MRCHDU: Convergence failed at  48  side 1    Res =  0.4759E+01
 MRCHDU: Convergence failed at  49  side 1    Res =  0.1912E+01
 MRCHDU: Convergence failed at  50  side 1    Res =  0.5760E+01
 MRCHDU: Convergence failed at  51  side 1    Res =  0.6983E+01
 MRCHDU: Convergence failed at  52  side 1    Res =  0.1184E+02
 MRCHDU: Convergence failed at  53  side 1    Res =  0.1537E+02
 MRCHDU: Convergence failed at  54  side 1    Res =  0.2513E+02
 MRCHDU: Convergence failed at  55  side 1    Res =  0.1227E+03
 MRCHDU: Convergence failed at  56  side 1    Res =  0.3583E+02
 MRCHDU: Convergence failed at  57  side 1    Res =  0.2097E+02
 MRCHDU: Convergence failed at  58  side 1    Res =  0.1003E+02
 MRCHDU: Convergence failed at  59  side 1    Res =  0.8914E+01
 MRCHDU: Convergence failed at  60  side 1    Res =  0.7992E+01
 MRCHDU: Convergence failed at  61  side 1    Res =  0.6757E+01
 MRCHDU: Convergence failed at  62  side 1    Res =  0.5924E+01
 MRCHDU: Convergence failed at  63  side 1    Res =  0.5154E+01
 MRCHDU: Convergence failed at  64  side 1    Res =  0.4424E+01
 MRCHDU: Convergence failed at  65  side 1    Res =  0.1753E+01
 MRCHDU: Convergence failed at  66  side 1    Res =  0.1949E+01
 MRCHDU: Convergence failed at  67  side 1    Res =  0.2579E+01
 MRCHDU: Convergence failed at  68  side 1    Res =  0.3009E+01
 MRCHDU: Convergence failed at  69  side 1    Res =  0.3634E+01
 MRCHDU: Convergence failed at  70  side 1    Res =  0.4853E+01
 MRCHDU: Convergence failed at  71  side 1    Res =  0.6588E+01
 MRCHDU: Convergence failed at  72  side 1    Res =  0.9349E+01
 MRCHDU: Convergence failed at  73  side 1    Res =  0.1728E+02
 MRCHDU: Convergence failed at  74  side 1    Res =  0.1008E+03
 MRCHDU: Convergence failed at  75  side 1    Res =  0.4237E+02
 MRCHDU: Convergence failed at  76  side 1    Res =  0.3025E+02
 MRCHDU: Convergence failed at  77  side 1    Res =  0.1343E+02
 MRCHDU: Convergence failed at  78  side 1    Res =  0.9029E+01
 MRCHDU: Convergence failed at  79  side 1    Res =  0.7303E+01
 MRCHDU: Convergence failed at  80  side 1    Res =  0.6286E+01
 MRCHDU: Convergence failed at  81  side 1    Res =  0.5222E+01
 MRCHDU: Convergence failed at  82  side 1    Res =  0.4398E+01
 MRCHDU: Convergence failed at  83  side 1    Res =  0.1730E+01
 MRCHDU: Convergence failed at  84  side 1    Res =  0.2135E+01
 MRCHDU: Convergence failed at  85  side 1    Res =  0.2644E+01
 MRCHDU: Convergence failed at  86  side 1    Res =  0.2892E+01
 MRCHDU: Convergence failed at  87  side 1    Res =  0.3077E+01
 MRCHDU: Convergence failed at  88  side 1    Res =  0.5059E+01
 MRCHDU: Convergence failed at  89  side 1    Res =  0.4978E+01
 MRCHDU: Convergence failed at  90  side 1    Res =  0.6445E+01
 MRCHDU: Convergence failed at  91  side 1    Res =  0.6071E+01
 MRCHDU: Convergence failed at  92  side 1    Res =  0.1052E+02
 MRCHDU: Convergence failed at  93  side 1    Res =  0.1376E+02
 MRCHDU: Convergence failed at  94  side 1    Res =  0.8583E+02
 MRCHDU: Convergence failed at  95  side 1    Res =  0.9730E+02
 MRCHDU: Convergence failed at  96  side 1    Res =  0.1014E+02
 MRCHDU: Convergence failed at  97  side 1    Res =  0.1483E+03
 MRCHDU: Convergence failed at  98  side 1    Res =  0.2267E+02
 MRCHDU: Convergence failed at  99  side 1    Res =  0.9947E+01
 MRCHDU: Convergence failed at 100  side 1    Res =  0.7686E+01
 MRCHDU: Convergence failed at 101  side 1    Res =  0.6512E+01
 MRCHDU: Convergence failed at 102  side 1    Res =  0.5674E+01
 MRCHDU: Convergence failed at 103  side 1    Res =  0.3919E+02
 MRCHDU: Convergence failed at 104  side 1    Res =  0.3961E+02
 Side 1  free  transition at x/c =  0.0567   28
 Side 2 forced transition at x/c =  0.9998   81

   1   rms: 0.3087E+02   max: 0.1405E+03   C at  104  1   RLX: 0.011
       a =  6.500      CL =  4.2828
      Cm = -1.0144     CD =  0.00722   =>   CDf =  0.00349    CDp =  0.00373

 Side 1  free  transition at x/c =  0.0518   28
 Side 2 forced transition at x/c =  0.9998   81

   2   rms: 0.3569E+01   max: 0.7791E+02   C at   28  1   RLX: 0.019
       a =  6.500      CL =  4.1849
      Cm = -0.9847     CD =  0.01539   =>   CDf =  0.02211    CDp = -0.00673

 Side 1  free  transition at x/c =  0.0399   26
 Side 2 forced transition at x/c =  0.9998   81

   3   rms: 0.1248E+01   max: -.1214E+01   U at  104  1   RLX: 0.150
       a =  6.500      CL =  3.7485
      Cm = -0.8296     CD =  0.01360   =>   CDf =  0.02196    CDp = -0.00836

 MRCHDU: Convergence failed at  26  side 1    Res =  0.1135E+02
 Side 1  free  transition at x/c =  0.0238   24
 Side 2 forced transition at x/c =  0.9998   81

   4   rms: 0.9556E+00   max: -.1180E+01   D at   94  2   RLX: 0.251
       a =  6.500      CL =  3.1654
      Cm = -0.6278     CD =  0.01405   =>   CDf =  0.01938    CDp = -0.00533

 Side 1  free  transition at x/c =  0.0196   23
 Side 2 forced transition at x/c =  0.9998   81

   5   rms: 0.7569E+00   max: 0.3252E+01   T at   23  1   RLX: 0.219
       a =  6.500      CL =  2.8038
      Cm = -0.5061     CD =  0.01792   =>   CDf =  0.01736    CDp =  0.00056

 Side 1  free  transition at x/c =  0.0183   23
 Side 2 forced transition at x/c =  0.9998   81

   6   rms: 0.5991E+00   max: 0.1181E+01   T at   91  2   RLX: 0.456
       a =  6.500      CL =  2.2681
      Cm = -0.3272     CD =  0.02592   =>   CDf =  0.01328    CDp =  0.01263

 Side 1  free  transition at x/c =  0.0176   24
 Side 2 forced transition at x/c =  0.9998   80

   7   rms: 0.3522E+00   max: 0.8904E+00   C at   80  2   RLX: 0.738
       a =  6.500      CL =  1.7568
      Cm = -0.1768     CD =  0.03344   =>   CDf =  0.01025    CDp =  0.02318

 Side 1  free  transition at x/c =  0.0174   24
 Side 2 forced transition at x/c =  0.9998   80
 idif Ue xi dudx           1  0.13941348      7.53688812E-03   18.497484    
 Uenew xinew           2  1.76714472E-02  9.55343246E-04

   8   rms: 0.2154E+00   max: -.6962E+00   D at   28  1   RLX: 0.640
       a =  6.500      CL =  1.5365
      Cm = -0.1262     CD =  0.03362   =>   CDf =  0.00804    CDp =  0.02558

 Side 1  free  transition at x/c =  0.0184   23
 Side 2 forced transition at x/c =  0.9998   81

   9   rms: 0.8473E-01   max: -.3213E+00   D at    2  2
       a =  6.500      CL =  1.4159
      Cm = -0.0982     CD =  0.03493   =>   CDf =  0.00764    CDp =  0.02729

 Side 1  free  transition at x/c =  0.0191   23
 Side 2 forced transition at x/c =  0.9998   81

  10   rms: 0.7669E-02   max: -.6274E-01   C at   81  2
       a =  6.500      CL =  1.4106
      Cm = -0.0974     CD =  0.03495   =>   CDf =  0.00748    CDp =  0.02747

 Side 1  free  transition at x/c =  0.0192   23
 Side 2 forced transition at x/c =  0.9998   81

  11   rms: 0.6736E-03   max: 0.2564E-02   D at   25  1
       a =  6.500      CL =  1.4111
      Cm = -0.0975     CD =  0.03496   =>   CDf =  0.00749    CDp =  0.02747

 Side 1  free  transition at x/c =  0.0192   23
 Side 2 forced transition at x/c =  0.9998   81

  12   rms: 0.5131E-04   max: 0.2020E-03   D at  102  1
       a =  6.500      CL =  1.4111
      Cm = -0.0975     CD =  0.03496   =>   CDf =  0.00749    CDp =  0.02747
 Calculating wake trajectory ...
 Calculating source influence matrix ...

 Solving BL system ...

 Side 1  free  transition at x/c =  0.0192   23
 Side 2 forced transition at x/c =  0.9998   81

   1   rms: 0.8500E-01   max: 0.3176E+00   T at   23  1
       a =  7.000      CL =  1.4448
      Cm = -0.0941     CD =  0.03875   =>   CDf =  0.00749    CDp =  0.03126

 Side 1  free  transition at x/c =  0.0180   23
 Side 2 forced transition at x/c =  0.9998   81

   2   rms: 0.8469E-02   max: 0.4825E-01   D at   23  1
       a =  7.000      CL =  1.4374
      Cm = -0.0931     CD =  0.03913   =>   CDf =  0.00699    CDp =  0.03214

 Side 1  free  transition at x/c =  0.0181   23
 Side 2 forced transition at x/c =  0.9998   81

   3   rms: 0.4828E-03   max: 0.1675E-02   D at   26  1
       a =  7.000      CL =  1.4377
      Cm = -0.0932     CD =  0.03914   =>   CDf =  0.00701    CDp =  0.03213

 Side 1  free  transition at x/c =  0.0181   23
 Side 2 forced transition at x/c =  0.9998   81

   4   rms: 0.4581E-04   max: -.1281E-03   T at  102  1
       a =  7.000      CL =  1.4377
      Cm = -0.0931     CD =  0.03914   =>   CDf =  0.00701    CDp =  0.03213
 Calculating wake trajectory ...
 Calculating source influence matrix ...

 Solving BL system ...

 Side 1  free  transition at x/c =  0.0181   23
 Side 2 forced transition at x/c =  0.9998   81

   1   rms: 0.9050E-01   max: 0.2240E+00   D at   27  1
       a =  7.500      CL =  1.4667
      Cm = -0.0894     CD =  0.04427   =>   CDf =  0.00657    CDp =  0.03769

 Side 1  free  transition at x/c =  0.0174   24
 Side 2 forced transition at x/c =  0.9998   80

   2   rms: 0.1614E-01   max: -.9950E-01   D at    2  1
       a =  7.500      CL =  1.4523
      Cm = -0.0874     CD =  0.04427   =>   CDf =  0.00638    CDp =  0.03789

 Side 1  free  transition at x/c =  0.0175   24
 Side 2 forced transition at x/c =  0.9998   80

   3   rms: 0.1680E-02   max: -.1946E-01   D at    4  1
       a =  7.500      CL =  1.4529
      Cm = -0.0875     CD =  0.04429   =>   CDf =  0.00643    CDp =  0.03786

 Side 1  free  transition at x/c =  0.0175   24
 Side 2 forced transition at x/c =  0.9998   80

   4   rms: 0.5630E-04   max: -.1527E-03   T at  102  1
       a =  7.500      CL =  1.4529
      Cm = -0.0875     CD =  0.04429   =>   CDf =  0.00642    CDp =  0.03787
 Calculating wake trajectory ...
 Calculating source influence matrix ...

 Solving BL system ...

 Side 1  free  transition at x/c =  0.0175   24
 Side 2 forced transition at x/c =  0.9998   80

   1   rms: 0.8840E-01   max: 0.2361E+00   D at   88  1
       a =  8.000      CL =  1.4648
      Cm = -0.0818     CD =  0.05054   =>   CDf =  0.00642    CDp =  0.04412

 Side 1  free  transition at x/c =  0.0173   24
 Side 2 forced transition at x/c =  0.9998   80

   2   rms: 0.1804E-01   max: 0.7177E-01   D at  101  1
       a =  8.000      CL =  1.4486
      Cm = -0.0800     CD =  0.05026   =>   CDf =  0.00569    CDp =  0.04458

 Side 1  free  transition at x/c =  0.0174   24
 Side 2 forced transition at x/c =  0.9998   80

   3   rms: 0.1040E-02   max: 0.8325E-02   D at  100  1
       a =  8.000      CL =  1.4492
      Cm = -0.0801     CD =  0.05028   =>   CDf =  0.00577    CDp =  0.04451

 Side 1  free  transition at x/c =  0.0174   24
 Side 2 forced transition at x/c =  0.9998   80

   4   rms: 0.2858E-04   max: 0.8613E-04   T at  101  1
       a =  8.000      CL =  1.4492
      Cm = -0.0801     CD =  0.05028   =>   CDf =  0.00577    CDp =  0.04451
 Calculating wake trajectory ...
 Calculating source influence matrix ...

 Solving BL system ...

 Side 1  free  transition at x/c =  0.0174   24
 Side 2 forced transition at x/c =  0.9998   80

   1   rms: 0.8291E-01   max: 0.2660E+00   D at   88  1   RLX: 0.862
       a =  8.500      CL =  1.4417
      Cm = -0.0738     CD =  0.05628   =>   CDf =  0.00578    CDp =  0.05050

 Side 1  free  transition at x/c =  0.0172   24
 Side 2 forced transition at x/c =  0.9998   80

   2   rms: 0.1448E-01   max: 0.8731E-01   D at   98  1
       a =  8.500      CL =  1.4294
      Cm = -0.0723     CD =  0.05681   =>   CDf =  0.00514    CDp =  0.05167

 Side 1  free  transition at x/c =  0.0172   24
 Side 2 forced transition at x/c =  0.9998   80

   3   rms: 0.8018E-03   max: 0.1179E-01   D at   97  1
       a =  8.500      CL =  1.4297
      Cm = -0.0723     CD =  0.05677   =>   CDf =  0.00517    CDp =  0.05160

 Side 1  free  transition at x/c =  0.0172   24
 Side 2 forced transition at x/c =  0.9998   80

   4   rms: 0.2176E-04   max: 0.2634E-03   D at   94  2
       a =  8.500      CL =  1.4297
      Cm = -0.0723     CD =  0.05676   =>   CDf =  0.00517    CDp =  0.05160
 Calculating wake trajectory ...
 Calculating source influence matrix ...

 Solving BL system ...

 Side 1  free  transition at x/c =  0.0172   24
 Side 2 forced transition at x/c =  0.9998   80

   1   rms: 0.8016E-01   max: 0.2802E+00   D at   88  1   RLX: 0.749
       a =  9.000      CL =  1.4139
      Cm = -0.0673     CD =  0.06261   =>   CDf =  0.00517    CDp =  0.05744

 Side 1  free  transition at x/c =  0.0171   24
 Side 2 forced transition at x/c =  0.9998   80

   2   rms: 0.2214E-01   max: 0.1168E+00   D at   95  1
       a =  9.000      CL =  1.4002
      Cm = -0.0659     CD =  0.06453   =>   CDf =  0.00469    CDp =  0.05984

 Side 1  free  transition at x/c =  0.0172   24
 Side 2 forced transition at x/c =  0.9998   80

   3   rms: 0.1761E-02   max: 0.1857E-01   D at   93  1
       a =  9.000      CL =  1.3989
      Cm = -0.0658     CD =  0.06428   =>   CDf =  0.00460    CDp =  0.05968

 Side 1  free  transition at x/c =  0.0172   24
 Side 2 forced transition at x/c =  0.9998   80

   4   rms: 0.1448E-03   max: -.6244E-03   D at   94  1
       a =  9.000      CL =  1.3991
      Cm = -0.0658     CD =  0.06428   =>   CDf =  0.00460    CDp =  0.05967

 Side 1  free  transition at x/c =  0.0172   24
 Side 2 forced transition at x/c =  0.9998   80

   5   rms: 0.1014E-04   max: 0.3915E-04   C at   80  2
       a =  9.000      CL =  1.3991
      Cm = -0.0658     CD =  0.06428   =>   CDf =  0.00460    CDp =  0.05967
 Calculating wake trajectory ...
 Calculating source influence matrix ...

 Solving BL system ...

 Side 1  free  transition at x/c =  0.0172   24
 Side 2 forced transition at x/c =  0.9998   80

   1   rms: 0.8302E-01   max: 0.2879E+00   D at   88  1   RLX: 0.657
       a =  9.500      CL =  1.3800
      Cm = -0.0628     CD =  0.07070   =>   CDf =  0.00461    CDp =  0.06609

 Side 1  free  transition at x/c =  0.0171   24
 Side 2 forced transition at x/c =  0.9998   80

   2   rms: 0.3437E-01   max: 0.1554E+00   D at   91  1
       a =  9.500      CL =  1.3611
      Cm = -0.0621     CD =  0.07414   =>   CDf =  0.00423    CDp =  0.06991

 Side 1  free  transition at x/c =  0.0172   24
 Side 2 forced transition at x/c =  0.9998   80

   3   rms: 0.3827E-02   max: 0.3634E-01   D at   90  1
       a =  9.500      CL =  1.3588
      Cm = -0.0621     CD =  0.07356   =>   CDf =  0.00406    CDp =  0.06950

 Side 1  free  transition at x/c =  0.0172   24
 Side 2 forced transition at x/c =  0.9998   80

   4   rms: 0.5362E-03   max: -.2161E-02   D at   90  1
       a =  9.500      CL =  1.3593
      Cm = -0.0622     CD =  0.07356   =>   CDf =  0.00408    CDp =  0.06948

 Side 1  free  transition at x/c =  0.0172   24
 Side 2 forced transition at x/c =  0.9998   80

   5   rms: 0.6541E-04   max: 0.1779E-03   D at   98  2
       a =  9.500      CL =  1.3592
      Cm = -0.0622     CD =  0.07356   =>   CDf =  0.00407    CDp =  0.06949
 Calculating wake trajectory ...
 Calculating source influence matrix ...

 Solving BL system ...

 Side 1  free  transition at x/c =  0.0172   24
 Side 2 forced transition at x/c =  0.9998   80

   1   rms: 0.9797E-01   max: 0.3260E+00   D at   78  1   RLX: 0.577
       a = 10.000      CL =  1.3369
      Cm = -0.0620     CD =  0.08140   =>   CDf =  0.00408    CDp =  0.07732

 Side 1  free  transition at x/c =  0.0174   24
 Side 2 forced transition at x/c =  0.9998   80

   2   rms: 0.5176E-01   max: 0.2144E+00   D at   84  1
       a = 10.000      CL =  1.3125
      Cm = -0.0640     CD =  0.08771   =>   CDf =  0.00374    CDp =  0.08397

 Side 1  free  transition at x/c =  0.0177   24
 Side 2 forced transition at x/c =  0.9998   80

   3   rms: 0.7839E-02   max: 0.5635E-01   D at   80  1
       a = 10.000      CL =  1.3098
      Cm = -0.0643     CD =  0.08647   =>   CDf =  0.00353    CDp =  0.08294

 Side 1  free  transition at x/c =  0.0177   24
 Side 2 forced transition at x/c =  0.9998   80

   4   rms: 0.1134E-02   max: -.5513E-02   D at   81  1
       a = 10.000      CL =  1.3105
      Cm = -0.0643     CD =  0.08631   =>   CDf =  0.00356    CDp =  0.08274

 Side 1  free  transition at x/c =  0.0177   24
 Side 2 forced transition at x/c =  0.9998   80

   5   rms: 0.1705E-03   max: 0.5735E-03   D at   77  1
       a = 10.000      CL =  1.3104
      Cm = -0.0643     CD =  0.08633   =>   CDf =  0.00356    CDp =  0.08277

 Side 1  free  transition at x/c =  0.0177   24
 Side 2 forced transition at x/c =  0.9998   80

   6   rms: 0.2081E-04   max: 0.5844E-04   T at   78  1
       a = 10.000      CL =  1.3104
      Cm = -0.0643     CD =  0.08633   =>   CDf =  0.00356    CDp =  0.08277

.OPERv   c>  
 Solving BL system ...

 Side 1  free  transition at x/c =  0.0177   24
 Side 2 forced transition at x/c =  0.9998   80

   1   rms: 0.2161E-05   max: 0.1277E-04   C at   80  2
       a = 10.000      CL =  1.3104
      Cm = -0.0643     CD =  0.08633   =>   CDf =  0.00356    CDp =  0.08277

.OPERv   c>  
 Flap hinge x,y :  0.0000  0.0000
                                           2  2
 Hinge moment/span = 0.389478  x  1/2 rho V  c 
                                           2   
 x-Force     /span = -.168020  x  1/2 rho V  c 
                                           2   
 y-Force     /span = 1.300712  x  1/2 rho V  c 


.OPERv   c>  
 Solving BL system ...

 Side 1  free  transition at x/c =  0.0177   24
 Side 2 forced transition at x/c =  0.9998   80

   1   rms: 0.1201E-05   max: -.7332E-05   C at   80  2
       a = 10.000      CL =  1.3104
      Cm = -0.0643     CD =  0.08633   =>   CDf =  0.00356    CDp =  0.08277
 Calculating wake trajectory ...
 Calculating source influence matrix ...

 Solving BL system ...

 Side 1  free  transition at x/c =  0.0177   24
 Side 2 forced transition at x/c =  0.9998   80

   1   rms: 0.1145E+00   max: 0.3756E+00   D at   72  1   RLX: 0.515
       a = 10.500      CL =  1.2899
      Cm = -0.0680     CD =  0.09616   =>   CDf =  0.00356    CDp =  0.09259

 Side 1  free  transition at x/c =  0.0179   24
 Side 2 forced transition at x/c =  0.9998   80

   2   rms: 0.6624E-01   max: 0.2630E+00   D at   72  1
       a = 10.500      CL =  1.2663
      Cm = -0.0739     CD =  0.10592   =>   CDf =  0.00329    CDp =  0.10263

 Side 1  free  transition at x/c =  0.0182   24
 Side 2 forced transition at x/c =  0.9998   80

   3   rms: 0.1186E-01   max: 0.5734E-01   D at   67  1
       a = 10.500      CL =  1.2613
      Cm = -0.0729     CD =  0.10256   =>   CDf =  0.00309    CDp =  0.09947

 Side 1  free  transition at x/c =  0.0182   24
 Side 2 forced transition at x/c =  0.9998   80

   4   rms: 0.1843E-02   max: -.5960E-02   D at   67  1
       a = 10.500      CL =  1.2623
      Cm = -0.0729     CD =  0.10253   =>   CDf =  0.00314    CDp =  0.09938

 Side 1  free  transition at x/c =  0.0182   24
 Side 2 forced transition at x/c =  0.9998   80

   5   rms: 0.2657E-03   max: 0.1088E-02   D at   64  1
       a = 10.500      CL =  1.2622
      Cm = -0.0729     CD =  0.10261   =>   CDf =  0.00314    CDp =  0.09947

 Side 1  free  transition at x/c =  0.0182   24
 Side 2 forced transition at x/c =  0.9998   80

   6   rms: 0.3411E-04   max: 0.1369E-03   D at   99  2
       a = 10.500      CL =  1.2622
      Cm = -0.0729     CD =  0.10259   =>   CDf =  0.00314    CDp =  0.09946
 Calculating wake trajectory ...
 Calculating source influence matrix ...

 Solving BL system ...

 Side 1  free  transition at x/c =  0.0182   24
 Side 2 forced transition at x/c =  0.9998   80

   1   rms: 0.1337E+00   max: 0.4525E+00   D at   59  1   RLX: 0.467
       a = 11.000      CL =  1.2456
      Cm = -0.0797     CD =  0.11517   =>   CDf =  0.00314    CDp =  0.11203

 Side 1  free  transition at x/c =  0.0185   24
 Side 2 forced transition at x/c =  0.9998   80

   2   rms: 0.7504E-01   max: 0.2968E+00   D at   60  1
       a = 11.000      CL =  1.2208
      Cm = -0.0875     CD =  0.12772   =>   CDf =  0.00292    CDp =  0.12480

 Side 1  free  transition at x/c =  0.0189   24
 Side 2 forced transition at x/c =  0.9998   80

   3   rms: 0.1672E-01   max: -.6965E-01   D at   45  1
       a = 11.000      CL =  1.2148
      Cm = -0.0850     CD =  0.12100   =>   CDf =  0.00278    CDp =  0.11822

 Side 1  free  transition at x/c =  0.0188   24
 Side 2 forced transition at x/c =  0.9998   80

   4   rms: 0.3326E-02   max: -.1229E-01   D at  101  2
       a = 11.000      CL =  1.2165
      Cm = -0.0853     CD =  0.12165   =>   CDf =  0.00284    CDp =  0.11881

 Side 1  free  transition at x/c =  0.0188   24
 Side 2 forced transition at x/c =  0.9998   80

   5   rms: 0.4952E-03   max: 0.1168E-02   D at   87  1
       a = 11.000      CL =  1.2163
      Cm = -0.0853     CD =  0.12175   =>   CDf =  0.00283    CDp =  0.11892

 Side 1  free  transition at x/c =  0.0188   24
 Side 2 forced transition at x/c =  0.9998   80

   6   rms: 0.7290E-04   max: -.2391E-03   D at   53  1
       a = 11.000      CL =  1.2163
      Cm = -0.0853     CD =  0.12171   =>   CDf =  0.00283    CDp =  0.11888
 Calculating wake trajectory ...
 Calculating source influence matrix ...

 Solving BL system ...

 Side 1  free  transition at x/c =  0.0188   24
 Side 2 forced transition at x/c =  0.9998   80
 idif Ue xi dudx           1  0.11512192      6.61849976E-03   17.393961    
 Uenew xinew           2  6.42791740E-04  3.69548798E-05

   1   rms: 0.1481E+00   max: 0.5198E+00   D at   50  1   RLX: 0.429
       a = 11.500      CL =  1.2032
      Cm = -0.0934     CD =  0.13569   =>   CDf =  0.00319    CDp =  0.13251

 Side 1  free  transition at x/c =  0.0192   23
 Side 2 forced transition at x/c =  0.9998   81

   2   rms: 0.1596E+00   max: -.2617E+01   T at    2  2   RLX: 0.191
       a = 11.500      CL =  1.2080
      Cm = -0.0978     CD =  0.13277   =>   CDf =  0.00270    CDp =  0.13007

 Side 1  free  transition at x/c =  0.0193   23
 Side 2 forced transition at x/c =  0.9998   81

   3   rms: 0.5846E-01   max: 0.2217E+00   D at   49  1
       a = 11.500      CL =  1.1811
      Cm = -0.1003     CD =  0.14747   =>   CDf =  0.00269    CDp =  0.14478

 Side 1  free  transition at x/c =  0.0197   23
 Side 2 forced transition at x/c =  0.9998   81

   4   rms: 0.2567E-01   max: -.1064E+00   D at   38  1
       a = 11.500      CL =  1.1740
      Cm = -0.0974     CD =  0.14003   =>   CDf =  0.00265    CDp =  0.13737

 Side 1  free  transition at x/c =  0.0196   23
 Side 2 forced transition at x/c =  0.9998   81

   5   rms: 0.6930E-02   max: -.2198E-01   D at  103  2
       a = 11.500      CL =  1.1779
      Cm = -0.0972     CD =  0.14064   =>   CDf =  0.00271    CDp =  0.13793

 Side 1  free  transition at x/c =  0.0196   23
 Side 2 forced transition at x/c =  0.9998   81

   6   rms: 0.8982E-03   max: -.6079E-02   T at   23  1
       a = 11.500      CL =  1.1783
      Cm = -0.0974     CD =  0.14122   =>   CDf =  0.00271    CDp =  0.13851

 Side 1  free  transition at x/c =  0.0196   23
 Side 2 forced transition at x/c =  0.9998   81

   7   rms: 0.1180E-03   max: -.3872E-03   D at   37  1
       a = 11.500      CL =  1.1783
      Cm = -0.0974     CD =  0.14121   =>   CDf =  0.00271    CDp =  0.13850

 Side 1  free  transition at x/c =  0.0196   23
 Side 2 forced transition at x/c =  0.9998   81

   8   rms: 0.1436E-04   max: -.5481E-04   C at   81  2
       a = 11.500      CL =  1.1783
      Cm = -0.0973     CD =  0.14121   =>   CDf =  0.00271    CDp =  0.13850
 Calculating wake trajectory ...
 Calculating source influence matrix ...

 Solving BL system ...

 Side 1  free  transition at x/c =  0.0196   23
 Side 2 forced transition at x/c =  0.9998   81

   1   rms: 0.9734E-01   max: -.7845E+00   T at   23  1   RLX: 0.403
       a = 12.000      CL =  1.1735
      Cm = -0.0987     CD =  0.14862   =>   CDf =  0.00271    CDp =  0.14591

 Side 1  free  transition at x/c =  0.0199   24
 Side 2 forced transition at x/c =  0.9998   81

   2   rms: 0.4964E+00   max: 0.1833E+01   D at   55  1   RLX: 0.818
       a = 12.000      CL =  1.3201
      Cm = -0.0585     CD =  0.11928   =>   CDf =  0.00335    CDp =  0.11593

 MRCHDU: Convergence failed at  29  side 1    Res =  0.2449E+02
 MRCHDU: Convergence failed at  30  side 1    Res =  0.5907E+03
 MRCHDU: Convergence failed at  31  side 1    Res =  0.7071E+03
 MRCHDU: Convergence failed at  32  side 1    Res =  0.1068E+03
 MRCHDU: Convergence failed at  33  side 1    Res =  0.1051E+03
 MRCHDU: Convergence failed at  34  side 1    Res =  0.1145E+03
 MRCHDU: Convergence failed at  35  side 1    Res =  0.1170E+03
[...]
 MRCHDU: Convergence failed at 100  side 1    Res =  0.5431E+00
 MRCHDU: Convergence failed at 101  side 1    Res =  0.9151E-01
 MRCHDU: Convergence failed at  99  side 2    Res =  0.3627E+01
 MRCHDU: Convergence failed at 100  side 2    Res =  0.1895E+01
 MRCHDU: Convergence failed at 101  side 2    Res =  0.4969E+01
 MRCHDU: Convergence failed at 102  side 2    Res =  0.1072E+02
 MRCHDU: Convergence failed at 103  side 2    Res =  0.3339E+01
 MRCHDU: Convergence failed at 104  side 2    Res =  0.1682E+02
 MRCHDU: Convergence failed at 105  side 2    Res =  0.8150E+01
 Side 1  free  transition at x/c =  0.0307   25
 Side 2 forced transition at x/c =  0.9998   81

  13   rms: 0.1348E+02   max: 0.7725E+02   C at  101  1   RLX: 0.019
       a = 12.500      CL =  3.3900
      Cm = -0.7472     CD =  0.55466   =>   CDf =  0.00267    CDp =  0.55199

 MRCHDU: Convergence failed at  96  side 1    Res =  0.5437E+00
 Side 1  free  transition at x/c =  0.0289   26
 Side 2 forced transition at x/c =  0.9998   80

  14   rms: 0.1456E+02   max: 0.9833E+02   C at  102  1   RLX: 0.011
       a = 12.500      CL =  3.5136
      Cm = -0.7743     CD =  0.76083   =>   CDf =  0.00313    CDp =  0.75770

 MRCHDU: Convergence failed at  98  side 2    Res =  0.2639E+01
 Side 1  free  transition at x/c =  0.0262   26
 Side 2 forced transition at x/c =  0.9998   80

  15   rms: 0.2524E+01   max: 0.5237E+02   C at   80  2   RLX: 0.029
       a = 12.500      CL =  3.5565
      Cm = -0.7822     CD =  0.62306   =>   CDf =  0.00315    CDp =  0.61991
 VISCAL:  Convergence failed
 Calculating wake trajectory ...
 Calculating source influence matrix ...

 Solving BL system ...

 Side 1  free  transition at x/c =  0.0257   26
 Side 2 forced transition at x/c =  0.9998   80

   1   rms: 0.1172E+02   max: 0.7795E+02   T at   29  1   RLX: 0.018
       a = 13.000      CL =  3.7121
      Cm = -0.8179     CD =  1.00262   =>   CDf =  0.00321    CDp =  0.99941

 MRCHDU: Convergence failed at  99  side 1    Res =  0.2537E-02
 MRCHDU: Convergence failed at 100  side 1    Res =  0.4643E-02
 MRCHDU: Convergence failed at 101  side 1    Res =  0.3212E-02
 MRCHDU: Convergence failed at 102  side 1    Res =  0.3804E-02
 MRCHDU: Convergence failed at 103  side 1    Res =  0.3206E+00
 MRCHDU: Convergence failed at  96  side 2    Res =  0.1453E+01
 MRCHDU: Convergence failed at  97  side 2    Res =  0.1745E+01
 MRCHDU: Convergence failed at  98  side 2    Res =  0.2655E+01
 Side 1  free  transition at x/c =  0.0253   25
 Side 2 forced transition at x/c =  0.9998   80

   2   rms: 0.1884E+03   max: 0.1037E+04   T at   30  1   RLX: 0.000
       a = 13.000      CL =  3.8669
      Cm = -0.8551     CD =  1.22704   =>   CDf =  0.00316    CDp =  1.22388

 MRCHDU: Convergence failed at  99  side 1    Res =  0.4244E-02
 MRCHDU: Convergence failed at 100  side 1    Res =  0.4558E-02
 MRCHDU: Convergence failed at 101  side 1    Res =  0.3139E-02
 MRCHDU: Convergence failed at 102  side 1    Res =  0.3703E-02
 MRCHDU: Convergence failed at 103  side 1    Res =  0.1396E-01
 Side 1  free  transition at x/c =  0.0253   25
 Side 2 forced transition at x/c =  0.9998   80

   3   rms: 0.7719E+02   max: 0.3824E+03   T at   94  2   RLX: 0.002
       a = 13.000      CL =  3.9813
      Cm = -0.8858     CD =  1.28962   =>   CDf =  0.00315    CDp =  1.28647

 MRCHDU: Convergence failed at  99  side 1    Res =  0.2102E-02
 MRCHDU: Convergence failed at 100  side 1    Res =  0.6556E-02
 MRCHDU: Convergence failed at 101  side 1    Res =  0.5227E-02
 MRCHDU: Convergence failed at 102  side 1    Res =  0.7516E-02
 MRCHDU: Convergence failed at  94  side 2    Res =  0.1584E+01
 MRCHDU: Convergence failed at  95  side 2    Res =  0.2115E+01
 MRCHDU: Convergence failed at  96  side 2    Res =  0.1131E+02
 Side 1  free  transition at x/c =  0.0233   25
 Side 2 forced transition at x/c =  0.9998   80

   4   rms: 0.4514E+02   max: 0.7141E+02   U at  104  2   RLX: 0.002
       a = 13.000      CL =  3.9644
      Cm = -0.8851     CD =  1.20002   =>   CDf =  0.00310    CDp =  1.19692

 MRCHDU: Convergence failed at  99  side 1    Res =  0.3245E-02
 MRCHDU: Convergence failed at 100  side 1    Res =  0.5689E-02
 MRCHDU: Convergence failed at 101  side 1    Res =  0.4251E-02
 MRCHDU: Convergence failed at 102  side 1    Res =  0.5476E-02
 MRCHDU: Convergence failed at 103  side 1    Res =  0.2990E+00
 MRCHDU: Convergence failed at 103  side 2    Res =  0.1575E+01
 MRCHDU: Convergence failed at 104  side 2    Res =  0.6675E+00
 Side 1  free  transition at x/c =  0.0233   25
 Side 2 forced transition at x/c =  0.9998   80

   5   rms: 0.3833E+02   max: 0.2195E+03   C at  103  1   RLX: 0.007
       a = 13.000      CL =  4.1349
      Cm = -0.9285     CD =  1.36941   =>   CDf =  0.00259    CDp =  1.36682

 MRCHDU: Convergence failed at  99  side 1    Res =  0.7020E-02
 MRCHDU: Convergence failed at 100  side 1    Res =  0.6728E-02
 MRCHDU: Convergence failed at 101  side 1    Res =  0.6306E-02
 MRCHDU: Convergence failed at 102  side 1    Res =  0.4618E-02
 MRCHDU: Convergence failed at 103  side 1    Res =  0.6039E-02
 MRCHDU: Convergence failed at  91  side 2    Res =  0.1322E+01
 MRCHDU: Convergence failed at  92  side 2    Res =  0.5004E+01
 MRCHDU: Convergence failed at  93  side 2    Res =  0.7387E+01
 Side 1  free  transition at x/c =  0.0213   26
 Side 2 forced transition at x/c =  0.9998   79

   6   rms: 0.8439E+02   max: 0.4578E+03   T at   26  1   RLX: 0.000
       a = 13.000      CL =  4.2451
      Cm = -0.9558     CD =  0.94982   =>   CDf =  0.00299    CDp =  0.94683

 MRCHDU: Convergence failed at  98  side 1    Res =  0.1179E-01
 MRCHDU: Convergence failed at  99  side 1    Res =  0.9606E-02
 MRCHDU: Convergence failed at 100  side 1    Res =  0.6952E-02
 MRCHDU: Convergence failed at 101  side 1    Res =  0.6675E-02
 MRCHDU: Convergence failed at 102  side 1    Res =  0.5046E-02
 MRCHDU: Convergence failed at 103  side 1    Res =  0.6978E-02
 Side 1  free  transition at x/c =  0.0207   26
 Side 2 forced transition at x/c =  0.9998   79

   7   rms: 0.1155E+02   max: 0.7687E+02   T at   26  1   RLX: 0.018
       a = 13.000      CL =  4.5419
      Cm = -1.0206     CD =  1.11580   =>   CDf =  0.00300    CDp =  1.11281

 MRCHDU: Convergence failed at 100  side 1    Res =  0.9653E-02
 MRCHDU: Convergence failed at 101  side 1    Res =  0.1761E-01
 MRCHDU: Convergence failed at 102  side 1    Res =  0.1973E-01
 MRCHDU: Convergence failed at  89  side 2    Res =  0.1043E+01
 MRCHDU: Convergence failed at  90  side 2    Res =  0.1171E+01
 MRCHDU: Convergence failed at  91  side 2    Res =  0.1878E+01
 MRCHDU: Convergence failed at  92  side 2    Res =  0.6865E+01
 MRCHDU: Convergence failed at  93  side 2    Res =  0.5456E+01
 MRCHDU: Convergence failed at  96  side 2    Res =  0.1321E+01
 MRCHDU: Convergence failed at  97  side 2    Res =  0.1982E+01
 MRCHDU: Convergence failed at  98  side 2    Res =  0.3726E+01
 MRCHDU: Convergence failed at  99  side 2    Res =  0.4370E+01
 MRCHDU: Convergence failed at 100  side 2    Res =  0.7707E+01
 MRCHDU: Convergence failed at 101  side 2    Res =  0.4561E+01
 MRCHDU: Convergence failed at 102  side 2    Res =  0.3464E+01
 MRCHDU: Convergence failed at 103  side 2    Res =  0.3423E+01
 Side 1  free  transition at x/c =  0.0190   25
 Side 2 forced transition at x/c =  0.9998   79

   8   rms: 0.8520E+01   max: 0.6193E+02   C at   79  2   RLX: 0.012
       a = 13.000      CL =  4.8842
      Cm = -1.0977     CD =  0.89690   =>   CDf =  0.00300    CDp =  0.89391

 MRCHDU: Convergence failed at 100  side 1    Res =  0.1372E-01
 MRCHDU: Convergence failed at 101  side 1    Res =  0.1997E-01
 MRCHDU: Convergence failed at 102  side 1    Res =  0.2161E-01
 Side 1  free  transition at x/c =  0.0171   25
 Side 2 forced transition at x/c =  0.9998   79

   9   rms: 0.9442E+02   max: 0.4710E+03   C at  103  1   RLX: 0.001
       a = 13.000      CL =  5.0714
      Cm = -1.1471     CD =  0.98750   =>   CDf =  0.00308    CDp =  0.98442

 MRCHDU: Convergence failed at 100  side 1    Res =  0.1477E-01
 MRCHDU: Convergence failed at 101  side 1    Res =  0.2074E-01
 MRCHDU: Convergence failed at 102  side 1    Res =  0.2300E-01
 Side 1  free  transition at x/c =  0.0166   25
 Side 2 forced transition at x/c =  0.9998   79

  10   rms: 0.5368E+02   max: 0.2570E+03   T at   25  1   RLX: 0.001
       a = 13.000      CL =  5.1971
      Cm = -1.1764     CD =  1.07494   =>   CDf =  0.00240    CDp =  1.07254

 MRCHDU: Convergence failed at  98  side 1    Res =  0.1115E+01
 Side 1  free  transition at x/c =  0.0158   26
 Side 2 forced transition at x/c =  0.9998   78

  11   rms: 0.4137E+01   max: 0.7501E+02   C at   78  2   RLX: 0.020
       a = 13.000      CL =  5.2951
      Cm = -1.1996     CD =  0.80666   =>   CDf =  0.00304    CDp =  0.80362

 MRCHDU: Convergence failed at  98  side 1    Res =  0.5053E+00
 Side 1  free  transition at x/c =  0.0153   26
 Side 2 forced transition at x/c =  0.9998   78

  12   rms: 0.5162E+02   max: -.2958E+03   T at   26  1   RLX: 0.002
       a = 13.000      CL =  5.2330
      Cm = -1.1903     CD =  0.95969   =>   CDf =  0.00305    CDp =  0.95664

 MRCHDU: Convergence failed at  98  side 1    Res =  0.4865E-01
 MRCHDU: Convergence failed at  99  side 1    Res =  0.3446E-01
 MRCHDU: Convergence failed at 100  side 1    Res =  0.1241E-01
 MRCHDU: Convergence failed at 101  side 1    Res =  0.8955E-02
 MRCHDU: Convergence failed at 102  side 1    Res =  0.8861E-02
 MRCHDU: Convergence failed at 103  side 1    Res =  0.6705E-02
 MRCHDU: Convergence failed at 104  side 1    Res =  0.1231E-01
 Side 1  free  transition at x/c =  0.0155   26
 Side 2 forced transition at x/c =  0.9998   78

  13   rms: 0.1057E+02   max: 0.8755E+02   C at   78  2   RLX: 0.017
       a = 13.000      CL =  5.5597
      Cm = -1.2709     CD =  1.52116   =>   CDf =  0.00309    CDp =  1.51806

 MRCHDU: Convergence failed at  98  side 1    Res =  0.2759E-01
 MRCHDU: Convergence failed at  89  side 2    Res =  0.4882E+01
 MRCHDU: Convergence failed at  90  side 2    Res =  0.3681E+01
 MRCHDU: Convergence failed at  91  side 2    Res =  0.3801E+01
 MRCHDU: Convergence failed at  92  side 2    Res =  0.4407E+01
 MRCHDU: Convergence failed at  94  side 2    Res =  0.1998E+01
 MRCHDU: Convergence failed at  95  side 2    Res =  0.1521E+01
 MRCHDU: Convergence failed at  96  side 2    Res =  0.1987E+01
 MRCHDU: Convergence failed at  97  side 2    Res =  0.2970E+01
 MRCHDU: Convergence failed at  98  side 2    Res =  0.4316E+01
 MRCHDU: Convergence failed at  99  side 2    Res =  0.6371E+01
 MRCHDU: Convergence failed at 100  side 2    Res =  0.6146E+01
 Side 1  free  transition at x/c =  0.0150   25
 Side 2 forced transition at x/c =  0.9998   78

  14   rms: 0.5692E+02   max: 0.3539E+03   T at   26  1   RLX: 0.001
       a = 13.000      CL =  5.6593
      Cm = -1.2990     CD =  1.37019   =>   CDf =  0.00303    CDp =  1.36716

 MRCHDU: Convergence failed at  99  side 1    Res =  0.1513E-01
 MRCHDU: Convergence failed at 100  side 1    Res =  0.1557E-01
 MRCHDU: Convergence failed at 101  side 1    Res =  0.1251E-01
 MRCHDU: Convergence failed at 102  side 1    Res =  0.1547E-01
 MRCHDU: Convergence failed at 103  side 1    Res =  0.1563E-01
 Side 1  free  transition at x/c =  0.0150   25
 Side 2 forced transition at x/c =  0.9998   78

  15   rms: 0.3014E+02   max: -.5409E+02   U at  102  2   RLX: 0.007
       a = 13.000      CL =  5.6441
      Cm = -1.3018     CD =  1.06861   =>   CDf =  0.00299    CDp =  1.06563
 VISCAL:  Convergence failed
 Calculating wake trajectory ...
 Calculating source influence matrix ...

 Solving BL system ...

 MRCHDU: Convergence failed at  99  side 1    Res =  0.1621E-01
 MRCHDU: Convergence failed at 100  side 1    Res =  0.1561E-01
 MRCHDU: Convergence failed at 101  side 1    Res =  0.1268E-01
 MRCHDU: Convergence failed at 102  side 1    Res =  0.1595E-01
 MRCHDU: Convergence failed at 103  side 1    Res =  0.1661E-01
 MRCHDU: Convergence failed at  98  side 2    Res =  0.5403E+01
 MRCHDU: Convergence failed at  99  side 2    Res =  0.2922E+01
 MRCHDU: Convergence failed at 102  side 2    Res =  0.1345E+02
 Side 1  free  transition at x/c =  0.0145   25
 Side 2 forced transition at x/c =  0.9998   78

   1   rms: 0.4901E+01   max: 0.9138E+02   C at   78  2   RLX: 0.016
       a = 13.500      CL =  5.8271
      Cm = -1.3484     CD =  1.60674   =>   CDf =  0.00281    CDp =  1.60393

 MRCHDU: Convergence failed at  98  side 1    Res =  0.2784E-01
 MRCHDU: Convergence failed at  99  side 1    Res =  0.4395E-01
 MRCHDU: Convergence failed at 100  side 1    Res =  0.1664E-01
 MRCHDU: Convergence failed at 101  side 1    Res =  0.1345E-01
 MRCHDU: Convergence failed at 102  side 1    Res =  0.1730E-01
 MRCHDU: Convergence failed at 103  side 1    Res =  0.1712E-01
 MRCHDU: Convergence failed at  97  side 2    Res =  0.1286E+02
 MRCHDU: Convergence failed at  98  side 2    Res =  0.7011E+01
 MRCHDU: Convergence failed at 101  side 2    Res =  0.1716E+01
 MRCHDU: Convergence failed at 102  side 2    Res =  0.1890E+01
 Side 1  free  transition at x/c =  0.0136   25
 Side 2 forced transition at x/c =  0.9998   78

   2   rms: 0.5297E+01   max: 0.9176E+02   C at   78  2   RLX: 0.016
       a = 13.500      CL =  6.0354
      Cm = -1.3968     CD =  1.77522   =>   CDf =  0.00206    CDp =  1.77316

 MRCHDU: Convergence failed at  99  side 1    Res =  0.1160E+00
 Side 1  free  transition at x/c =  0.0127   26
 Side 2 forced transition at x/c =  0.9998   77

   3   rms: 0.5971E+02   max: 0.1134E+03   U at  101  2   RLX: 0.001
       a = 13.500      CL =  6.1240
      Cm = -1.4162     CD =  1.46965   =>   CDf =  0.00286    CDp =  1.46679

 MRCHDU: Convergence failed at  99  side 1    Res =  0.2444E-01
 MRCHDU: Convergence failed at  90  side 2    Res =  0.7148E+01
 MRCHDU: Convergence failed at  91  side 2    Res =  0.7113E+01
 MRCHDU: Convergence failed at  92  side 2    Res =  0.1170E+03
 MRCHDU: Convergence failed at  93  side 2    Res =  0.1226E+02
 MRCHDU: Convergence failed at  94  side 2    Res =  0.4783E+01
 MRCHDU: Convergence failed at  95  side 2    Res =  0.3219E+01
 MRCHDU: Convergence failed at  96  side 2    Res =  0.3453E+01
 MRCHDU: Convergence failed at  97  side 2    Res =  0.7066E+02
 MRCHDU: Convergence failed at  98  side 2    Res =  0.7209E+01
 MRCHDU: Convergence failed at  99  side 2    Res =  0.2727E+01
 MRCHDU: Convergence failed at 100  side 2    Res =  0.1509E+01
 MRCHDU: Convergence failed at 101  side 2    Res =  0.1788E+01
 Side 1  free  transition at x/c =  0.0126   26
 Side 2 forced transition at x/c =  0.9998   77

   4   rms: 0.9865E+01   max: 0.1163E+03   C at   77  2   RLX: 0.013
       a = 13.500      CL =  6.2805
      Cm = -1.4518     CD =  0.76146   =>   CDf =  0.00291    CDp =  0.75855

 MRCHDU: Convergence failed at  99  side 1    Res =  0.9345E-02
 Side 1  free  transition at x/c =  0.0120   26
 Side 2 forced transition at x/c =  0.9998   77

   5   rms: 0.1623E+02   max: 0.1104E+03   C at   77  2   RLX: 0.014
       a = 13.500      CL =  6.4587
      Cm = -1.4977     CD =  1.26343   =>   CDf =  0.00294    CDp =  1.26050

 MRCHDU: Convergence failed at  99  side 1    Res =  0.2632E-01
 MRCHDU: Convergence failed at  85  side 2    Res =  0.2130E+01
 MRCHDU: Convergence failed at  86  side 2    Res =  0.5156E+01
 MRCHDU: Convergence failed at  87  side 2    Res =  0.3576E+01
 MRCHDU: Convergence failed at  88  side 2    Res =  0.2620E+01
 MRCHDU: Convergence failed at  89  side 2    Res =  0.1704E+01
 MRCHDU: Convergence failed at  90  side 2    Res =  0.1919E+01
 MRCHDU: Convergence failed at  92  side 2    Res =  0.5592E+01
 MRCHDU: Convergence failed at  93  side 2    Res =  0.6093E+01
 MRCHDU: Convergence failed at  94  side 2    Res =  0.6314E+01
 MRCHDU: Convergence failed at  95  side 2    Res =  0.6270E+01
 MRCHDU: Convergence failed at  96  side 2    Res =  0.5638E+01
 Side 1  free  transition at x/c =  0.0115   25
 Side 2 forced transition at x/c =  0.9998   77

   6   rms: 0.1896E+02   max: 0.1180E+03   C at   77  2   RLX: 0.005
       a = 13.500      CL =  6.7216
      Cm = -1.5739     CD =  1.33371   =>   CDf =  0.00287    CDp =  1.33084

 MRCHDU: Convergence failed at  99  side 1    Res =  0.1867E+00
 Side 1  free  transition at x/c =  0.0115   25
 Side 2 forced transition at x/c =  0.9998   77

   7   rms: 0.4862E+02   max: 0.2392E+03   C at  105  1   RLX: 0.003
       a = 13.500      CL =  6.8757
      Cm = -1.6088     CD =  1.26696   =>   CDf =  0.00290    CDp =  1.26406

 Side 1  free  transition at x/c =  0.0114   25
 Side 2 forced transition at x/c =  0.9998   77

   8   rms: 0.7386E+01   max: 0.1208E+03   C at   77  2   RLX: 0.009
       a = 13.500      CL =  7.0387
      Cm = -1.6495     CD =  1.36630   =>   CDf =  0.00295    CDp =  1.36336

 Side 1  free  transition at x/c =  0.0111   25
 Side 2 forced transition at x/c =  0.9998   77

   9   rms: 0.5324E+01   max: 0.1238E+03   C at   77  2   RLX: 0.012
       a = 13.500      CL =  7.1363
      Cm = -1.6762     CD =  1.52317   =>   CDf =  0.00297    CDp =  1.52020

 Side 1  free  transition at x/c =  0.0108   25
 Side 2 forced transition at x/c =  0.9998   77

  10   rms: 0.1684E+03   max: 0.8803E+03   C at  105  1   RLX: 0.000
       a = 13.500      CL =  7.2213
      Cm = -1.6964     CD =  1.91987   =>   CDf =  0.00296    CDp =  1.91691

 Side 1  free  transition at x/c =  0.0105   25
 Side 2 forced transition at x/c =  0.9998   77

  11   rms: 0.1748E+02   max: 0.3000E+02   U at  101  2   RLX: 0.006
       a = 13.500      CL =  7.2178
      Cm = -1.6931     CD =  1.57866   =>   CDf =  0.00294    CDp =  1.57572

 Side 1  free  transition at x/c =  0.0107   25
 Side 2 forced transition at x/c =  0.9998   77

  12   rms: 0.3926E+02   max: 0.2228E+03   C at  105  1   RLX: 0.007
       a = 13.500      CL =  7.3682
      Cm = -1.7283     CD =  1.85707   =>   CDf =  0.00303    CDp =  1.85404

 Side 1  free  transition at x/c =  0.0101   25
 Side 2 forced transition at x/c =  0.9998   77

  13   rms: 0.1024E+03   max: 0.5590E+03   C at  105  1   RLX: 0.002
       a = 13.500      CL =  7.5246
      Cm = -1.7664     CD =  1.95559   =>   CDf =  0.00304    CDp =  1.95255

 Side 1  free  transition at x/c =  0.0095   25
 Side 2 forced transition at x/c =  0.9998   77

  14   rms: 0.1365E+02   max: 0.1271E+03   C at   77  2   RLX: 0.012
       a = 13.500      CL =  7.7058
      Cm = -1.8124     CD =  1.65593   =>   CDf =  0.00200    CDp =  1.65393

 MRCHDU: Convergence failed at  99  side 2    Res =  0.4302E+01
 MRCHDU: Convergence failed at 100  side 2    Res =  0.2409E+01
 Side 1  free  transition at x/c =  0.0087   26
 Side 2 forced transition at x/c =  0.9998   76

  15   rms: 0.7270E+01   max: 0.1778E+03   C at   76  2   RLX: 0.008
       a = 13.500      CL =  7.8040
      Cm = -1.8399     CD =  2.50339   =>   CDf =  0.00289    CDp =  2.50050
 VISCAL:  Convergence failed

 Sequence halted since previous  4 points did not converge
 Last-converged  alpha =  11.500    CL =   1.17826

.OPERva   c>  
 Polar accumulation disabled

.OPERv   c>  
        airfoil                    Re           Mach       Ncrit  XtripT  XtripB     file
       ------------------------  ------------  ----------  -----  ------  ------    -------------------
    1  AG 36                     2.430e5       0.000        9.00   1.000   1.000    

Enter polar output filename   s>  
 Output file exists.  Overwrite?  Y

.OPERv   c>  
 XFOIL   c>  
 XFOIL   c>  