
 ===================================================
  XFOIL Version 6.99
  Copyright (C) 2000   Mark Drela, Harold Youngren

  This software comes with ABSOLUTELY NO WARRANTY,
    subject to the GNU General Public License.

  Caveat computor
 ===================================================

 File  xfoil.def  not found

   QUIT    Exit program

  .OPER    Direct operating point(s)
  .MDES    Complex mapping design routine
  .QDES    Surface speed design routine
  .GDES    Geometry design routine

   SAVE f  Write airfoil to labeled coordinate file
   PSAV f  Write airfoil to plain coordinate file
   ISAV f  Write airfoil to ISES coordinate file
   MSAV f  Write airfoil to MSES coordinate file
   REVE    Reverse written-airfoil node ordering

   LOAD f  Read buffer airfoil from coordinate file
   NACA i  Set NACA 4,5-digit airfoil and buffer airfoil
   INTE    Set buffer airfoil by interpolating two airfoils
   NORM    Buffer airfoil normalization toggle
   XYCM rr Change CM reference location, currently  0.25000 0.00000

   BEND    Display structural properties of current airfoil

   PCOP    Set current-airfoil panel nodes directly from buffer airfoil points
   PANE    Set current-airfoil panel nodes ( 160 ) based on curvature
  .PPAR    Show/change paneling

  .PLOP    Plotting options

   WDEF f  Write  current-settings file
   RDEF f  Reread current-settings file
   NAME s  Specify new airfoil name
   NINC    Increment name version number

   Z       Zoom    | (available in all menus)
   U       Unzoom  | 

 XFOIL   c>  
 Labeled airfoil file.  Name:  HT 14                                           

 Number of input coordinate points: 140
 Counterclockwise ordering
 Max thickness =     0.074905  at x =   0.188
 Max camber    =    -0.000001  at x =   0.225

  LE  x,y  =  -0.00000   0.00002  |   Chord =   1.00002
  TE  x,y  =   1.00002   0.00000  |

 Current airfoil nodes set from buffer airfoil nodes ( 140 )

 XFOIL   c>  
.OPERi   c>  
Enter Reynolds number   r>  
 M  =    0.0000
 Re =    243000

.OPERv   c>   Calculating unit vorticity distributions ...
 Calculating wake trajectory ...
 Calculating source influence matrix ...

 Solving BL system ...

 Initializing BL ...
    side            1  ...
 MRCHUE: Inverse mode at  65     Hk =   4.083
 MRCHUE: Inverse mode at  66     Hk =   4.430
 MRCHUE: Inverse mode at  67     Hk =   4.760
 MRCHUE: Inverse mode at  68     Hk =   5.063
 MRCHUE: Inverse mode at  69     Hk =   5.185
 MRCHUE: Inverse mode at  70     Hk =   4.122
 MRCHUE: Inverse mode at  71     Hk =   3.615
    side            2  ...
 MRCHUE: Inverse mode at  65     Hk =   4.138
 MRCHUE: Inverse mode at  66     Hk =   4.485
 MRCHUE: Inverse mode at  67     Hk =   4.815
 MRCHUE: Inverse mode at  68     Hk =   5.118
 MRCHUE: Inverse mode at  69     Hk =   5.138
 MRCHUE: Inverse mode at  70     Hk =   4.083
 MRCHUE: Inverse mode at  71     Hk =   3.579
 MRCHUE: Inverse mode at  73     Hk =   3.139

 Side 1  free  transition at x/c =  0.9799   69
 Side 2  free  transition at x/c =  0.9791   69

   1   rms: 0.1141E+00   max: -.7099E+00   T at   69  1   RLX: 0.704
       a =  0.000      CL =  0.0046
      Cm = -0.0009     CD =  0.00606   =>   CDf =  0.00405    CDp =  0.00201

 Side 1 forced transition at x/c =  1.0000   71
 Side 2 forced transition at x/c =  1.0000   71

   2   rms: 0.8528E-01   max: 0.7245E+00   D at   69  1   RLX: 0.828
       a =  0.000      CL = -0.0050
      Cm =  0.0011     CD =  0.00636   =>   CDf =  0.00434    CDp =  0.00202

 Side 1 forced transition at x/c =  1.0000   71
 Side 2 forced transition at x/c =  1.0000   71

   3   rms: 0.1678E-01   max: 0.1492E+00   D at   70  2
       a =  0.000      CL =  0.0001
      Cm = -0.0000     CD =  0.00647   =>   CDf =  0.00432    CDp =  0.00216

 Side 1 forced transition at x/c =  1.0000   71
 Side 2 forced transition at x/c =  1.0000   71

   4   rms: 0.1908E-02   max: 0.1750E-01   C at   71  2
       a =  0.000      CL =  0.0001
      Cm =  0.0000     CD =  0.00649   =>   CDf =  0.00429    CDp =  0.00220

 Side 1 forced transition at x/c =  1.0000   71
 Side 2 forced transition at x/c =  1.0000   71

   5   rms: 0.1903E-04   max: 0.2383E-03   C at   71  2
       a =  0.000      CL =  0.0001
      Cm =  0.0000     CD =  0.00649   =>   CDf =  0.00429    CDp =  0.00220

.OPERv   c>  
.OPERv   c>  
Enter flap hinge x location   r>  
  Top    surface:  y =  0.0160     y/t = 1.0
  Bottom surface:  y = -0.0160     y/t = 0.0

Enter flap hinge y location (or 999 to specify y/t)   r>  
 Flap hinge x,y :  0.7000  0.0000
                                           2  2
 Hinge moment/span = 0.000001  x  1/2 rho V  c 
                                           2   
 x-Force     /span = -.001067  x  1/2 rho V  c 
                                           2   
 y-Force     /span = 0.000007  x  1/2 rho V  c 


.OPERv   c>   Calculating wake trajectory ...
 Calculating source influence matrix ...

 Solving BL system ...

 Side 1 forced transition at x/c =  1.0000   71
 Side 2 forced transition at x/c =  1.0000   71

   1   rms: 0.1920E+00   max: -.4485E+00   C at   71  2
       a =  1.000      CL =  0.1017
      Cm =  0.0021     CD =  0.00651   =>   CDf =  0.00430    CDp =  0.00222

 Side 1  free  transition at x/c =  0.7623   59
 Side 2 forced transition at x/c =  1.0000   70

   2   rms: 0.4924E-01   max: -.4614E+00   D at   72  2
       a =  1.000      CL =  0.1214
      Cm =  0.0000     CD =  0.00687   =>   CDf =  0.00491    CDp =  0.00196

 Side 1  free  transition at x/c =  0.7389   57
 Side 2 forced transition at x/c =  1.0000   70

   3   rms: 0.2049E-01   max: 0.3165E+00   C at   70  2
       a =  1.000      CL =  0.1266
      Cm = -0.0010     CD =  0.00703   =>   CDf =  0.00489    CDp =  0.00214

 Side 1  free  transition at x/c =  0.7298   57
 Side 2 forced transition at x/c =  1.0000   70

   4   rms: 0.2672E-02   max: 0.3508E-01   C at   70  2
       a =  1.000      CL =  0.1276
      Cm = -0.0012     CD =  0.00705   =>   CDf =  0.00490    CDp =  0.00214

 Side 1  free  transition at x/c =  0.7293   57
 Side 2 forced transition at x/c =  1.0000   70

   5   rms: 0.3531E-04   max: 0.4051E-03   C at   70  2
       a =  1.000      CL =  0.1276
      Cm = -0.0012     CD =  0.00705   =>   CDf =  0.00490    CDp =  0.00215

.OPERv   c>  
.OPERv   c>  
Enter flap hinge x location   r>  
  Top    surface:  y =  0.0160     y/t = 1.0
  Bottom surface:  y = -0.0160     y/t = 0.0

Enter flap hinge y location (or 999 to specify y/t)   r>  
 Flap hinge x,y :  0.7000  0.0000
                                           2  2
 Hinge moment/span = 0.000724  x  1/2 rho V  c 
                                           2   
 x-Force     /span = -.001541  x  1/2 rho V  c 
                                           2   
 y-Force     /span = 0.009899  x  1/2 rho V  c 


.OPERv   c>   Calculating wake trajectory ...
 Calculating source influence matrix ...

 Solving BL system ...

 Side 1  free  transition at x/c =  0.7293   57
 Side 2 forced transition at x/c =  1.0000   70

   1   rms: 0.4325E+00   max: 0.6678E+01   C at   57  1   RLX: 0.225
       a =  2.000      CL =  0.1470
      Cm =  0.0006     CD =  0.00745   =>   CDf =  0.00490    CDp =  0.00255

 Side 1  free  transition at x/c =  0.6364   52
 Side 2 forced transition at x/c =  1.0000   70

   2   rms: 0.2143E+00   max: 0.2708E+01   C at   52  1   RLX: 0.554
       a =  2.000      CL =  0.1910
      Cm =  0.0018     CD =  0.00804   =>   CDf =  0.00538    CDp =  0.00266

 Side 1  free  transition at x/c =  0.5121   47
 Side 2 forced transition at x/c =  1.0000   69

   3   rms: 0.7752E-01   max: -.4790E+00   D at   47  1
       a =  2.000      CL =  0.2289
      Cm =  0.0019     CD =  0.00854   =>   CDf =  0.00595    CDp =  0.00259

 Side 1  free  transition at x/c =  0.4356   43
 Side 2 forced transition at x/c =  1.0000   69

   4   rms: 0.2259E-01   max: -.2118E+00   D at   47  1
       a =  2.000      CL =  0.2287
      Cm =  0.0019     CD =  0.00856   =>   CDf =  0.00629    CDp =  0.00227

 Side 1  free  transition at x/c =  0.4370   43
 Side 2 forced transition at x/c =  1.0000   69

   5   rms: 0.4501E-02   max: 0.7178E-01   C at   43  1
       a =  2.000      CL =  0.2287
      Cm =  0.0019     CD =  0.00859   =>   CDf =  0.00623    CDp =  0.00236

 Side 1  free  transition at x/c =  0.4345   43
 Side 2 forced transition at x/c =  1.0000   69

   6   rms: 0.7153E-04   max: -.7980E-03   D at   45  1
       a =  2.000      CL =  0.2287
      Cm =  0.0019     CD =  0.00859   =>   CDf =  0.00626    CDp =  0.00234

.OPERv   c>  
.OPERv   c>  
Enter flap hinge x location   r>  
  Top    surface:  y =  0.0160     y/t = 1.0
  Bottom surface:  y = -0.0160     y/t = 0.0

Enter flap hinge y location (or 999 to specify y/t)   r>  
 Flap hinge x,y :  0.7000  0.0000
                                           2  2
 Hinge moment/span = 0.001519  x  1/2 rho V  c 
                                           2   
 x-Force     /span = -.001184  x  1/2 rho V  c 
                                           2   
 y-Force     /span = 0.015402  x  1/2 rho V  c 


.OPERv   c>   Calculating wake trajectory ...
 Calculating source influence matrix ...

 Solving BL system ...

 Side 1  free  transition at x/c =  0.4345   43
 Side 2 forced transition at x/c =  1.0000   69

   1   rms: 0.3096E+00   max: 0.3917E+01   C at   43  1   RLX: 0.283
       a =  3.000      CL =  0.2583
      Cm =  0.0023     CD =  0.00909   =>   CDf =  0.00626    CDp =  0.00283

 Side 1  free  transition at x/c =  0.3776   41
 Side 2 forced transition at x/c =  1.0000   68

   2   rms: 0.1936E+00   max: 0.1555E+01   C at   41  1   RLX: 0.480
       a =  3.000      CL =  0.2954
      Cm =  0.0027     CD =  0.00957   =>   CDf =  0.00652    CDp =  0.00304

 Side 1  free  transition at x/c =  0.3179   38
 Side 2 forced transition at x/c =  1.0000   68

   3   rms: 0.9893E-01   max: -.8197E+00   D at   38  1   RLX: 0.610
       a =  3.000      CL =  0.3203
      Cm =  0.0029     CD =  0.00989   =>   CDf =  0.00680    CDp =  0.00309

 Side 1  free  transition at x/c =  0.2804   36
 Side 2 forced transition at x/c =  1.0000   68

   4   rms: 0.5231E-01   max: -.5969E+00   D at   36  1   RLX: 0.838
       a =  3.000      CL =  0.3336
      Cm =  0.0029     CD =  0.01004   =>   CDf =  0.00696    CDp =  0.00308

 Side 1  free  transition at x/c =  0.2613   34
 Side 2 forced transition at x/c =  1.0000   68

   5   rms: 0.1982E-01   max: -.2663E+00   D at   36  1
       a =  3.000      CL =  0.3366
      Cm =  0.0028     CD =  0.01000   =>   CDf =  0.00705    CDp =  0.00295

 Side 1  free  transition at x/c =  0.2543   34
 Side 2 forced transition at x/c =  1.0000   68

   6   rms: 0.1673E-02   max: -.2479E-01   D at   36  1
       a =  3.000      CL =  0.3365
      Cm =  0.0028     CD =  0.01001   =>   CDf =  0.00707    CDp =  0.00294

 Side 1  free  transition at x/c =  0.2541   34
 Side 2 forced transition at x/c =  1.0000   68

   7   rms: 0.1948E-04   max: -.2965E-03   D at   36  1
       a =  3.000      CL =  0.3365
      Cm =  0.0028     CD =  0.01001   =>   CDf =  0.00707    CDp =  0.00294

.OPERv   c>  
.OPERv   c>  
Enter flap hinge x location   r>  
  Top    surface:  y =  0.0160     y/t = 1.0
  Bottom surface:  y = -0.0160     y/t = 0.0

Enter flap hinge y location (or 999 to specify y/t)   r>  
 Flap hinge x,y :  0.7000  0.0000
                                           2  2
 Hinge moment/span = 0.002253  x  1/2 rho V  c 
                                           2   
 x-Force     /span = -.001242  x  1/2 rho V  c 
                                           2   
 y-Force     /span = 0.023312  x  1/2 rho V  c 


.OPERv   c>   Calculating wake trajectory ...
 Calculating source influence matrix ...

 Solving BL system ...

 Side 1  free  transition at x/c =  0.2541   34
 Side 2 forced transition at x/c =  1.0000   68

   1   rms: 0.2337E+00   max: 0.1750E+01   C at   34  1   RLX: 0.399
       a =  4.000      CL =  0.3802
      Cm =  0.0031     CD =  0.01054   =>   CDf =  0.00704    CDp =  0.00350

 Side 1  free  transition at x/c =  0.2137   33
 Side 2 forced transition at x/c =  1.0000   67

   2   rms: 0.1403E+00   max: 0.1094E+01   T at   33  1   RLX: 0.656
       a =  4.000      CL =  0.4228
      Cm =  0.0035     CD =  0.01136   =>   CDf =  0.00732    CDp =  0.00404

 Side 1  free  transition at x/c =  0.1830   31
 Side 2 forced transition at x/c =  1.0000   67

   3   rms: 0.5562E-01   max: -.4808E+00   D at   33  1
       a =  4.000      CL =  0.4457
      Cm =  0.0036     CD =  0.01150   =>   CDf =  0.00740    CDp =  0.00409

 Side 1  free  transition at x/c =  0.1683   31
 Side 2 forced transition at x/c =  1.0000   66

   4   rms: 0.6647E-01   max: 0.1085E+01   T at    2  1
       a =  4.000      CL =  0.4453
      Cm =  0.0036     CD =  0.01155   =>   CDf =  0.00751    CDp =  0.00404

 Side 1  free  transition at x/c =  0.1682   31
 Side 2 forced transition at x/c =  1.0000   66
 idif Ue xi dudx           1  0.15566775      2.51102448E-03   61.993721    
 Uenew xinew           2  8.12924991E-05  1.31130219E-06

   5   rms: 0.4007E-02   max: 0.4476E-01   D at    4  1
       a =  4.000      CL =  0.4453
      Cm =  0.0036     CD =  0.01156   =>   CDf =  0.00754    CDp =  0.00402

 Side 1  free  transition at x/c =  0.1680   30
 Side 2 forced transition at x/c =  1.0000   67

   6   rms: 0.9783E-02   max: -.1632E+00   D at    2  2
       a =  4.000      CL =  0.4453
      Cm =  0.0036     CD =  0.01156   =>   CDf =  0.00749    CDp =  0.00407

 Side 1  free  transition at x/c =  0.1680   30
 Side 2 forced transition at x/c =  1.0000   67

   7   rms: 0.1395E-03   max: -.2183E-02   D at    2  2
       a =  4.000      CL =  0.4453
      Cm =  0.0036     CD =  0.01156   =>   CDf =  0.00749    CDp =  0.00407

 Side 1  free  transition at x/c =  0.1680   30
 Side 2 forced transition at x/c =  1.0000   67

   8   rms: 0.3453E-03   max: -.4501E-02   D at    2  2
       a =  4.000      CL =  0.4453
      Cm =  0.0036     CD =  0.01156   =>   CDf =  0.00749    CDp =  0.00407

 Side 1  free  transition at x/c =  0.1680   30
 Side 2 forced transition at x/c =  1.0000   67

   9   rms: 0.1794E-05   max: -.1619E-04   T at    2  2
       a =  4.000      CL =  0.4453
      Cm =  0.0036     CD =  0.01156   =>   CDf =  0.00749    CDp =  0.00407

.OPERv   c>  
.OPERv   c>  
Enter flap hinge x location   r>  
  Top    surface:  y =  0.0160     y/t = 1.0
  Bottom surface:  y = -0.0160     y/t = 0.0

Enter flap hinge y location (or 999 to specify y/t)   r>  
 Flap hinge x,y :  0.7000  0.0000
                                           2  2
 Hinge moment/span = 0.002947  x  1/2 rho V  c 
                                           2   
 x-Force     /span = -.001257  x  1/2 rho V  c 
                                           2   
 y-Force     /span = 0.030670  x  1/2 rho V  c 


.OPERv   c>   Calculating wake trajectory ...
 Calculating source influence matrix ...

 Solving BL system ...

 Side 1  free  transition at x/c =  0.1680   30
 Side 2 forced transition at x/c =  1.0000   67

   1   rms: 0.6870E+00   max: 0.9982E+01   T at    2  2   RLX: 0.078
       a =  5.000      CL =  0.4539
      Cm =  0.0037     CD =  0.01163   =>   CDf =  0.00743    CDp =  0.00420

 Side 1  free  transition at x/c =  0.1633   31
 Side 2 forced transition at x/c =  1.0000   66

   2   rms: 0.2282E+00   max: 0.2125E+01   T at    2  1   RLX: 0.431
       a =  5.000      CL =  0.4977
      Cm =  0.0041     CD =  0.01213   =>   CDf =  0.00747    CDp =  0.00466

 Side 1  free  transition at x/c =  0.1442   30
 Side 2 forced transition at x/c =  1.0000   66

   3   rms: 0.1122E+00   max: 0.7227E+00   T at   30  1   RLX: 0.769
       a =  5.000      CL =  0.5421
      Cm =  0.0045     CD =  0.01265   =>   CDf =  0.00748    CDp =  0.00517

 MRCHDU: Convergence failed at  31  side 1    Res =  0.2690E+01
 MRCHDU: Convergence failed at  32  side 1    Res =  0.6389E+01
 MRCHDU: Convergence failed at  33  side 1    Res =  0.3735E+01
 MRCHDU: Convergence failed at  34  side 1    Res =  0.2783E+01
 MRCHDU: Convergence failed at  35  side 1    Res =  0.3461E+01
 MRCHDU: Convergence failed at  36  side 1    Res =  0.4283E+01
 MRCHDU: Convergence failed at  37  side 1    Res =  0.4677E+01
 MRCHDU: Convergence failed at  38  side 1    Res =  0.5133E+01
 MRCHDU: Convergence failed at  39  side 1    Res =  0.5444E+01
 MRCHDU: Convergence failed at  40  side 1    Res =  0.5620E+01
 MRCHDU: Convergence failed at  41  side 1    Res =  0.5706E+01
 MRCHDU: Convergence failed at  42  side 1    Res =  0.5372E+01
 MRCHDU: Convergence failed at  43  side 1    Res =  0.4998E+01
 MRCHDU: Convergence failed at  44  side 1    Res =  0.4454E+01
 MRCHDU: Convergence failed at  45  side 1    Res =  0.4404E+01
 MRCHDU: Convergence failed at  46  side 1    Res =  0.1387E+02
 MRCHDU: Convergence failed at  47  side 1    Res =  0.1648E+02
 MRCHDU: Convergence failed at  48  side 1    Res =  0.1998E+02
 MRCHDU: Convergence failed at  49  side 1    Res =  0.2441E+02
 MRCHDU: Convergence failed at  50  side 1    Res =  0.3149E+02
 MRCHDU: Convergence failed at  51  side 1    Res =  0.4353E+02
 MRCHDU: Convergence failed at  52  side 1    Res =  0.6474E+02
 MRCHDU: Convergence failed at  53  side 1    Res =  0.1758E+03
 MRCHDU: Convergence failed at  54  side 1    Res =  0.6008E+03
 MRCHDU: Convergence failed at  55  side 1    Res =  0.1100E+03
 MRCHDU: Convergence failed at  56  side 1    Res =  0.7169E+02
 MRCHDU: Convergence failed at  57  side 1    Res =  0.1023E+02
 MRCHDU: Convergence failed at  58  side 1    Res =  0.9972E+01
 MRCHDU: Convergence failed at  59  side 1    Res =  0.1022E+02
 MRCHDU: Convergence failed at  60  side 1    Res =  0.1047E+02
 MRCHDU: Convergence failed at  61  side 1    Res =  0.1019E+02
 MRCHDU: Convergence failed at  62  side 1    Res =  0.1043E+02
 MRCHDU: Convergence failed at  63  side 1    Res =  0.1047E+02
 MRCHDU: Convergence failed at  64  side 1    Res =  0.1075E+02
 MRCHDU: Convergence failed at  65  side 1    Res =  0.1113E+02
 MRCHDU: Convergence failed at  66  side 1    Res =  0.1432E+02
 MRCHDU: Convergence failed at  67  side 1    Res =  0.1490E+02
 MRCHDU: Convergence failed at  68  side 1    Res =  0.1991E+02
 MRCHDU: Convergence failed at  69  side 1    Res =  0.2024E+02
 MRCHDU: Convergence failed at  70  side 1    Res =  0.1884E+02
 MRCHDU: Convergence failed at  71  side 1    Res =  0.1725E+02
 MRCHDU: Convergence failed at  72  side 1    Res =  0.2439E+02
 MRCHDU: Convergence failed at  73  side 1    Res =  0.2446E+02
 MRCHDU: Convergence failed at  74  side 1    Res =  0.2510E+02
 MRCHDU: Convergence failed at  75  side 1    Res =  0.2599E+02
 MRCHDU: Convergence failed at  76  side 1    Res =  0.1827E+02
 MRCHDU: Convergence failed at  77  side 1    Res =  0.1903E+02
 Side 1  free  transition at x/c =  0.1274   30
 Side 2 forced transition at x/c =  1.0000   65

   4   rms: 0.6005E+00   max: -.2403E+01   C at   65  2   RLX: 0.208
       a =  5.000      CL =  1.0573
      Cm = -0.1988     CD =  0.00711   =>   CDf =  0.00313    CDp =  0.00398

 Side 1  free  transition at x/c =  0.1229   30
 Side 2 forced transition at x/c =  1.0000   65

   5   rms: 0.3183E+00   max: 0.8006E+00   C at   65  2   RLX: 0.507
       a =  5.000      CL =  0.7333
      Cm = -0.0603     CD =  0.01684   =>   CDf =  0.00708    CDp =  0.00976

 Side 1  free  transition at x/c =  0.1209   30
 Side 2 forced transition at x/c =  1.0000   65

   6   rms: 0.3837E+00   max: -.1964E+01   D at   48  1   RLX: 0.255
       a =  5.000      CL =  0.6848
      Cm = -0.0395     CD =  0.01436   =>   CDf =  0.00669    CDp =  0.00766

 Side 1  free  transition at x/c =  0.1199   29
 Side 2 forced transition at x/c =  1.0000   65

   7   rms: 0.4097E+00   max: -.2183E+01   D at   57  1   RLX: 0.229
       a =  5.000      CL =  0.6503
      Cm = -0.0266     CD =  0.01335   =>   CDf =  0.00699    CDp =  0.00636

 MRCHDU: Convergence failed at  54  side 1    Res =  0.2253E+00
 Side 1  free  transition at x/c =  0.1209   30
 Side 2 forced transition at x/c =  1.0000   65

   8   rms: 0.4391E+00   max: -.2140E+01   D at   67  1   RLX: 0.234
       a =  5.000      CL =  0.6408
      Cm = -0.0203     CD =  0.01290   =>   CDf =  0.00759    CDp =  0.00531

 MRCHDU: Convergence failed at  64  side 1    Res =  0.9360E+00
 Side 1  free  transition at x/c =  0.1202   30
 Side 2 forced transition at x/c =  1.0000   65

   9   rms: 0.7630E+00   max: 0.5186E+01   C at   65  2   RLX: 0.289
       a =  5.000      CL =  0.7691
      Cm = -0.0499     CD =  0.01537   =>   CDf =  0.00809    CDp =  0.00729

 MRCHDU: Convergence failed at  30  side 1    Res =  0.1912E+02
 MRCHDU: Convergence failed at  31  side 1    Res =  0.6769E+02
 MRCHDU: Convergence failed at  74  side 1    Res =  0.9262E+00
 MRCHDU: Convergence failed at  75  side 1    Res =  0.2821E+01
 MRCHDU: Convergence failed at  76  side 1    Res =  0.2650E+01
 MRCHDU: Convergence failed at  77  side 1    Res =  0.1076E+01
 Side 1  free  transition at x/c =  0.0966   28
 Side 2 forced transition at x/c =  1.0000   65

  10   rms: 0.3512E+00   max: -.1162E+01   C at   65  2   RLX: 0.430
       a =  5.000      CL =  0.7071
      Cm = -0.0413     CD =  0.00820   =>   CDf =  0.00800    CDp =  0.00020
 VISCAL:  Convergence failed
 Type "!" to continue iterating

.OPERv   c>  
.OPERv   c>  
Enter flap hinge x location   r>  
  Top    surface:  y =  0.0160     y/t = 1.0
  Bottom surface:  y = -0.0160     y/t = 0.0

Enter flap hinge y location (or 999 to specify y/t)   r>  
 Flap hinge x,y :  0.7000  0.0000
                                           2  2
 Hinge moment/span = 0.015826  x  1/2 rho V  c 
                                           2   
 x-Force     /span = 0.001812  x  1/2 rho V  c 
                                           2   
 y-Force     /span = 0.103047  x  1/2 rho V  c 


.OPERv   c>  
 Solving BL system ...

 Side 1  free  transition at x/c =  0.1035   28
 Side 2 forced transition at x/c =  1.0000   65

   1   rms: 0.4447E+00   max: -.3605E+01   T at   28  1   RLX: 0.139
       a =  5.000      CL =  0.6758
      Cm = -0.0352     CD =  0.01133   =>   CDf =  0.00891    CDp =  0.00242

 MRCHDU: Convergence failed at  29  side 1    Res =  0.2586E+02
 MRCHDU: Convergence failed at  30  side 1    Res =  0.7959E+01
 MRCHDU: Convergence failed at  31  side 1    Res =  0.1083E+02
 MRCHDU: Convergence failed at  32  side 1    Res =  0.5188E+01
 MRCHDU: Convergence failed at  33  side 1    Res =  0.1540E+02
 MRCHDU: Convergence failed at  34  side 1    Res =  0.3067E+02
 MRCHDU: Convergence failed at  35  side 1    Res =  0.4484E+02
 MRCHDU: Convergence failed at  36  side 1    Res =  0.5663E+02
 MRCHDU: Convergence failed at  37  side 1    Res =  0.6232E+02
 MRCHDU: Convergence failed at  38  side 1    Res =  0.6198E+02
 MRCHDU: Convergence failed at  39  side 1    Res =  0.5895E+02
 MRCHDU: Convergence failed at  40  side 1    Res =  0.5261E+02
 MRCHDU: Convergence failed at  41  side 1    Res =  0.4817E+02
 MRCHDU: Convergence failed at  42  side 1    Res =  0.4496E+02
 MRCHDU: Convergence failed at  43  side 1    Res =  0.4265E+02
 MRCHDU: Convergence failed at  44  side 1    Res =  0.4304E+02
 MRCHDU: Convergence failed at  45  side 1    Res =  0.2365E+02
 MRCHDU: Convergence failed at  46  side 1    Res =  0.2650E+02
 MRCHDU: Convergence failed at  47  side 1    Res =  0.2705E+02
 MRCHDU: Convergence failed at  48  side 1    Res =  0.2612E+02
 MRCHDU: Convergence failed at  49  side 1    Res =  0.2451E+02
 MRCHDU: Convergence failed at  50  side 1    Res =  0.2187E+02
 MRCHDU: Convergence failed at  51  side 1    Res =  0.1732E+02
 MRCHDU: Convergence failed at  52  side 1    Res =  0.3628E+02
 MRCHDU: Convergence failed at  53  side 1    Res =  0.3539E+02
 MRCHDU: Convergence failed at  54  side 1    Res =  0.3309E+02
 MRCHDU: Convergence failed at  55  side 1    Res =  0.1857E+02
 MRCHDU: Convergence failed at  56  side 1    Res =  0.1814E+02
 MRCHDU: Convergence failed at  57  side 1    Res =  0.1810E+02
 MRCHDU: Convergence failed at  58  side 1    Res =  0.1786E+02
 MRCHDU: Convergence failed at  59  side 1    Res =  0.1744E+02
 MRCHDU: Convergence failed at  60  side 1    Res =  0.3143E+02
 MRCHDU: Convergence failed at  61  side 1    Res =  0.1713E+02
 MRCHDU: Convergence failed at  62  side 1    Res =  0.3322E+02
 MRCHDU: Convergence failed at  63  side 1    Res =  0.3122E+02
 MRCHDU: Convergence failed at  64  side 1    Res =  0.2890E+02
 MRCHDU: Convergence failed at  65  side 1    Res =  0.3963E+02
 MRCHDU: Convergence failed at  66  side 1    Res =  0.1428E+02
 MRCHDU: Convergence failed at  67  side 1    Res =  0.1490E+02
 MRCHDU: Convergence failed at  68  side 1    Res =  0.1583E+02
 MRCHDU: Convergence failed at  69  side 1    Res =  0.1725E+02
 MRCHDU: Convergence failed at  70  side 1    Res =  0.2156E+02
 MRCHDU: Convergence failed at  71  side 1    Res =  0.1862E+02
 MRCHDU: Convergence failed at  72  side 1    Res =  0.2942E+02
 MRCHDU: Convergence failed at  73  side 1    Res =  0.3244E+02
 MRCHDU: Convergence failed at  74  side 1    Res =  0.3051E+02
 MRCHDU: Convergence failed at  75  side 1    Res =  0.2820E+02
 MRCHDU: Convergence failed at  76  side 1    Res =  0.2679E+02
 MRCHDU: Convergence failed at  77  side 1    Res =  0.2588E+02
 Side 1  free  transition at x/c =  0.1126   29
 Side 2 forced transition at x/c =  1.0000   65

   2   rms: 0.8613E+00   max: 0.3408E+01   D at   67  2   RLX: 0.198
       a =  5.000      CL =  1.3784
      Cm = -0.2867     CD =  0.00474   =>   CDf =  0.00283    CDp =  0.00191

 Side 1  free  transition at x/c =  0.1144   29
 Side 2 forced transition at x/c =  1.0000   65

   3   rms: 0.3821E+00   max: -.6330E+00   D at   66  2   RLX: 0.539
       a =  5.000      CL =  0.8654
      Cm = -0.0950     CD =  0.01369   =>   CDf =  0.00902    CDp =  0.00468

 Side 1  free  transition at x/c =  0.1135   29
 Side 2 forced transition at x/c =  1.0000   65

   4   rms: 0.3860E+00   max: -.2027E+01   D at   55  1   RLX: 0.247
       a =  5.000      CL =  0.7929
      Cm = -0.0689     CD =  0.01186   =>   CDf =  0.00796    CDp =  0.00390

 MRCHDU: Convergence failed at  57  side 1    Res =  0.2284E+01
 MRCHDU: Convergence failed at  58  side 1    Res =  0.1200E+01
 Side 1  free  transition at x/c =  0.1136   29
 Side 2 forced transition at x/c =  1.0000   65

   5   rms: 0.3690E+00   max: -.1970E+01   D at   55  1   RLX: 0.254
       a =  5.000      CL =  0.7484
      Cm = -0.0528     CD =  0.01196   =>   CDf =  0.00779    CDp =  0.00417

 MRCHDU: Convergence failed at  52  side 1    Res =  0.6214E+00
 MRCHDU: Convergence failed at  53  side 1    Res =  0.2718E+00
 MRCHDU: Convergence failed at  54  side 1    Res =  0.3904E+00
 MRCHDU: Convergence failed at  56  side 1    Res =  0.1343E+00
 Side 1  free  transition at x/c =  0.1145   29
 Side 2 forced transition at x/c =  1.0000   65

   6   rms: 0.3013E+00   max: 0.2154E+01   C at   65  2   RLX: 0.507
       a =  5.000      CL =  0.7977
      Cm = -0.0580     CD =  0.01223   =>   CDf =  0.00882    CDp =  0.00341

 MRCHDU: Convergence failed at  76  side 1    Res =  0.5869E+00
 MRCHDU: Convergence failed at  77  side 1    Res =  0.4317E+00
 Side 1  free  transition at x/c =  0.0996   28
 Side 2 forced transition at x/c =  1.0000   65

   7   rms: 0.2846E+00   max: -.1139E+01   C at   65  2   RLX: 0.439
       a =  5.000      CL =  0.6964
      Cm = -0.0337     CD =  0.00799   =>   CDf =  0.00829    CDp = -0.00030

 Side 1  free  transition at x/c =  0.1070   29
 Side 2 forced transition at x/c =  1.0000   65

   8   rms: 0.1666E+00   max: -.6954E+00   C at   65  2   RLX: 0.719
       a =  5.000      CL =  0.5962
      Cm = -0.0061     CD =  0.01055   =>   CDf =  0.00799    CDp =  0.00256

 Side 1  free  transition at x/c =  0.1151   29
 Side 2 forced transition at x/c =  1.0000   65

   9   rms: 0.5353E-01   max: -.2475E+00   D at   58  1
       a =  5.000      CL =  0.5548
      Cm =  0.0043     CD =  0.01312   =>   CDf =  0.00768    CDp =  0.00544

 Side 1  free  transition at x/c =  0.1183   29
 Side 2 forced transition at x/c =  1.0000   65

  10   rms: 0.2738E-02   max: -.2809E-01   D at   58  1
       a =  5.000      CL =  0.5536
      Cm =  0.0045     CD =  0.01328   =>   CDf =  0.00760    CDp =  0.00569

 Side 1  free  transition at x/c =  0.1185   29
 Side 2 forced transition at x/c =  1.0000   65

  11   rms: 0.2029E-04   max: -.3054E-03   D at   58  1
       a =  5.000      CL =  0.5536
      Cm =  0.0045     CD =  0.01328   =>   CDf =  0.00760    CDp =  0.00569
 Calculating wake trajectory ...
 Calculating source influence matrix ...

 Solving BL system ...

 Side 1  free  transition at x/c =  0.1185   29
 Side 2 forced transition at x/c =  1.0000   65

   1   rms: 0.1005E+00   max: 0.7799E+00   T at   29  1   RLX: 0.761
       a =  5.500      CL =  0.5962
      Cm =  0.0050     CD =  0.01356   =>   CDf =  0.00760    CDp =  0.00596

 Side 1  free  transition at x/c =  0.1036   28
 Side 2 forced transition at x/c =  1.0000   65

   2   rms: 0.3841E-01   max: -.3183E+00   C at   28  1
       a =  5.500      CL =  0.6080
      Cm =  0.0051     CD =  0.01396   =>   CDf =  0.00765    CDp =  0.00632

 Side 1  free  transition at x/c =  0.0989   28
 Side 2 forced transition at x/c =  1.0000   65

   3   rms: 0.2198E-02   max: 0.2715E-01   T at   28  1
       a =  5.500      CL =  0.6076
      Cm =  0.0051     CD =  0.01417   =>   CDf =  0.00754    CDp =  0.00663

 Side 1  free  transition at x/c =  0.0983   28
 Side 2 forced transition at x/c =  1.0000   65

   4   rms: 0.8816E-04   max: -.7788E-03   D at   28  1
       a =  5.500      CL =  0.6076
      Cm =  0.0051     CD =  0.01417   =>   CDf =  0.00755    CDp =  0.00663
 Calculating wake trajectory ...
 Calculating source influence matrix ...

 Solving BL system ...

 Side 1  free  transition at x/c =  0.0983   28
 Side 2 forced transition at x/c =  1.0000   65

   1   rms: 0.1009E+00   max: 0.7754E+00   T at   28  1
       a =  6.000      CL =  0.6624
      Cm =  0.0056     CD =  0.01486   =>   CDf =  0.00743    CDp =  0.00742

 MRCHDU: Convergence failed at  29  side 1    Res =  0.5278E+01
 MRCHDU: Convergence failed at  30  side 1    Res =  0.1526E+02
 MRCHDU: Convergence failed at  31  side 1    Res =  0.2824E+02
 MRCHDU: Convergence failed at  32  side 1    Res =  0.2411E+02
 MRCHDU: Convergence failed at  33  side 1    Res =  0.1951E+02
 MRCHDU: Convergence failed at  34  side 1    Res =  0.2155E+02
 MRCHDU: Convergence failed at  35  side 1    Res =  0.2828E+02
 MRCHDU: Convergence failed at  36  side 1    Res =  0.4549E+02
 MRCHDU: Convergence failed at  37  side 1    Res =  0.1386E+03
 MRCHDU: Convergence failed at  38  side 1    Res =  0.2260E+02
 MRCHDU: Convergence failed at  39  side 1    Res =  0.1771E+02
 MRCHDU: Convergence failed at  40  side 1    Res =  0.8366E+01
 MRCHDU: Convergence failed at  41  side 1    Res =  0.6514E+02
 MRCHDU: Convergence failed at  42  side 1    Res =  0.3914E+02
 MRCHDU: Convergence failed at  43  side 1    Res =  0.3050E+02
 MRCHDU: Convergence failed at  44  side 1    Res =  0.2603E+02
 MRCHDU: Convergence failed at  45  side 1    Res =  0.2343E+02
 MRCHDU: Convergence failed at  46  side 1    Res =  0.2131E+02
 MRCHDU: Convergence failed at  47  side 1    Res =  0.1332E+02
 MRCHDU: Convergence failed at  48  side 1    Res =  0.2293E+02
 MRCHDU: Convergence failed at  49  side 1    Res =  0.4769E+02
 MRCHDU: Convergence failed at  50  side 1    Res =  0.1951E+03
 MRCHDU: Convergence failed at  51  side 1    Res =  0.1673E+03
 MRCHDU: Convergence failed at  52  side 1    Res =  0.1421E+03
 MRCHDU: Convergence failed at  53  side 1    Res =  0.2336E+03
 MRCHDU: Convergence failed at  54  side 1    Res =  0.2570E+03
 MRCHDU: Convergence failed at  55  side 1    Res =  0.4163E+03
 MRCHDU: Convergence failed at  56  side 1    Res =  0.1937E+04
 MRCHDU: Convergence failed at  57  side 1    Res =  0.1856E+04
 MRCHDU: Convergence failed at  58  side 1    Res =  0.5733E+03
 MRCHDU: Convergence failed at  59  side 1    Res =  0.7607E+03
 MRCHDU: Convergence failed at  60  side 1    Res =  0.4869E+03
 MRCHDU: Convergence failed at  61  side 1    Res =  0.2726E+03
 MRCHDU: Convergence failed at  62  side 1    Res =  0.2384E+02
 MRCHDU: Convergence failed at  63  side 1    Res =  0.2336E+02
 MRCHDU: Convergence failed at  64  side 1    Res =  0.4419E+02
 MRCHDU: Convergence failed at  65  side 1    Res =  0.4313E+02
 MRCHDU: Convergence failed at  66  side 1    Res =  0.3848E+02
 MRCHDU: Convergence failed at  67  side 1    Res =  0.3460E+02
 MRCHDU: Convergence failed at  68  side 1    Res =  0.3002E+02
 MRCHDU: Convergence failed at  69  side 1    Res =  0.2619E+02
 MRCHDU: Convergence failed at  70  side 1    Res =  0.2317E+02
 MRCHDU: Convergence failed at  71  side 1    Res =  0.2127E+02
 MRCHDU: Convergence failed at  72  side 1    Res =  0.1962E+02
 MRCHDU: Convergence failed at  73  side 1    Res =  0.8595E+02
 MRCHDU: Convergence failed at  74  side 1    Res =  0.4832E+02
 MRCHDU: Convergence failed at  75  side 1    Res =  0.5265E+02
 MRCHDU: Convergence failed at  76  side 1    Res =  0.5075E+02
 MRCHDU: Convergence failed at  77  side 1    Res =  0.6395E+02
 MRCHDU: Convergence failed at  78  side 1    Res =  0.9005E+02
 Side 1  free  transition at x/c =  0.0831   28
 Side 2 forced transition at x/c =  1.0000   64

   2   rms: 0.1003E+01   max: -.4536E+01   C at   64  2   RLX: 0.110
       a =  6.000      CL =  1.6518
      Cm = -0.3537     CD =  0.00672   =>   CDf =  0.00288    CDp =  0.00384

 MRCHDU: Convergence failed at  32  side 1    Res =  0.7078E-01
 MRCHDU: Convergence failed at  42  side 1    Res =  0.2305E+00
 MRCHDU: Convergence failed at  43  side 1    Res =  0.2119E+00
 MRCHDU: Convergence failed at  44  side 1    Res =  0.1891E+00
 MRCHDU: Convergence failed at  45  side 1    Res =  0.1504E+00
 Side 1  free  transition at x/c =  0.0799   28
 Side 2 forced transition at x/c =  1.0000   64

   3   rms: 0.4306E+00   max: -.6908E+00   D at   65  2   RLX: 0.491
       a =  6.000      CL =  0.9748
      Cm = -0.1152     CD =  0.02555   =>   CDf =  0.00484    CDp =  0.02070

 MRCHDU: Convergence failed at  46  side 1    Res =  0.1852E+00
 MRCHDU: Convergence failed at  47  side 1    Res =  0.4315E+00
 MRCHDU: Convergence failed at  50  side 1    Res =  0.2908E+01
 MRCHDU: Convergence failed at  51  side 1    Res =  0.1490E+01
 MRCHDU: Convergence failed at  52  side 1    Res =  0.7940E+00
 MRCHDU: Convergence failed at  53  side 1    Res =  0.1868E+01
 MRCHDU: Convergence failed at  67  side 1    Res =  0.2475E+00
 MRCHDU: Convergence failed at  68  side 1    Res =  0.6267E+00
 MRCHDU: Convergence failed at  69  side 1    Res =  0.5420E-01
 MRCHDU: Convergence failed at  71  side 1    Res =  0.1467E+01
 MRCHDU: Convergence failed at  72  side 1    Res =  0.1180E+01
 MRCHDU: Convergence failed at  73  side 1    Res =  0.9181E+00
 MRCHDU: Convergence failed at  74  side 1    Res =  0.7051E+00
 MRCHDU: Convergence failed at  75  side 1    Res =  0.5981E+01
 Side 1  free  transition at x/c =  0.0817   28
 Side 2 forced transition at x/c =  1.0000   64

   4   rms: 0.5424E+00   max: -.2877E+01   D at   48  1   RLX: 0.174
       a =  6.000      CL =  0.8310
      Cm = -0.0643     CD =  0.02401   =>   CDf =  0.00646    CDp =  0.01755

 MRCHDU: Convergence failed at  48  side 1    Res =  0.1852E+00
 MRCHDU: Convergence failed at  49  side 1    Res =  0.1642E+00
 MRCHDU: Convergence failed at  50  side 1    Res =  0.1388E+00
 MRCHDU: Convergence failed at  51  side 1    Res =  0.1277E+00
 MRCHDU: Convergence failed at  52  side 1    Res =  0.1246E+00
 MRCHDU: Convergence failed at  53  side 1    Res =  0.1347E+00
 MRCHDU: Convergence failed at  69  side 1    Res =  0.4581E+00
 MRCHDU: Convergence failed at  70  side 1    Res =  0.5694E+00
 MRCHDU: Convergence failed at  71  side 1    Res =  0.5600E+00
 MRCHDU: Convergence failed at  72  side 1    Res =  0.5548E+00
 MRCHDU: Convergence failed at  73  side 1    Res =  0.5536E+00
 MRCHDU: Convergence failed at  74  side 1    Res =  0.5580E+00
 MRCHDU: Convergence failed at  75  side 1    Res =  0.5737E+00
 Side 1  free  transition at x/c =  0.0834   28
 Side 2 forced transition at x/c =  1.0000   64

   5   rms: 0.1497E+02   max: 0.6140E+02   D at   39  1   RLX: 0.024
       a =  6.000      CL =  0.7888
      Cm = -0.0460     CD =  0.03810   =>   CDf =  0.00405    CDp =  0.03405

 MRCHDU: Convergence failed at  28  side 1    Res =  0.2862E+01
 MRCHDU: Convergence failed at  29  side 1    Res =  0.7117E+01
 MRCHDU: Convergence failed at  30  side 1    Res =  0.8783E+01
 MRCHDU: Convergence failed at  31  side 1    Res =  0.2903E+02
 MRCHDU: Convergence failed at  32  side 1    Res =  0.4674E+01
 MRCHDU: Convergence failed at  33  side 1    Res =  0.4531E+01
 MRCHDU: Convergence failed at  35  side 1    Res =  0.6055E+01
 MRCHDU: Convergence failed at  36  side 1    Res =  0.1021E+02
 MRCHDU: Convergence failed at  37  side 1    Res =  0.3941E+02
 MRCHDU: Convergence failed at  38  side 1    Res =  0.6017E+01
 MRCHDU: Convergence failed at  39  side 1    Res =  0.5014E+01
 MRCHDU: Convergence failed at  40  side 1    Res =  0.2572E+02
 MRCHDU: Convergence failed at  50  side 1    Res =  0.8273E+00
 MRCHDU: Convergence failed at  62  side 1    Res =  0.1100E+01
 MRCHDU: Convergence failed at  63  side 1    Res =  0.1352E+01
 MRCHDU: Convergence failed at  64  side 1    Res =  0.2215E+01
 MRCHDU: Convergence failed at  65  side 1    Res =  0.2539E+01
 MRCHDU: Convergence failed at  66  side 1    Res =  0.2835E+01
 MRCHDU: Convergence failed at  67  side 1    Res =  0.3493E+01
 MRCHDU: Convergence failed at  68  side 1    Res =  0.4213E+01
 MRCHDU: Convergence failed at  69  side 1    Res =  0.4396E+01
 MRCHDU: Convergence failed at  70  side 1    Res =  0.4642E+01
 MRCHDU: Convergence failed at  71  side 1    Res =  0.4913E+01
 MRCHDU: Convergence failed at  72  side 1    Res =  0.5240E+01
 MRCHDU: Convergence failed at  73  side 1    Res =  0.5649E+01
 MRCHDU: Convergence failed at  74  side 1    Res =  0.6196E+01
 MRCHDU: Convergence failed at  75  side 1    Res =  0.6931E+01
 MRCHDU: Convergence failed at  76  side 1    Res =  0.4485E+01
 MRCHDU: Convergence failed at  77  side 1    Res =  0.5135E+03
 MRCHDU: Convergence failed at  78  side 1    Res =  0.1315E+02
 Side 1  free  transition at x/c =  0.0724   27
 Side 2 forced transition at x/c =  1.0000   64

   6   rms: 0.4238E+00   max: -.1352E+01   D at   52  1   RLX: 0.370
       a =  6.000      CL =  1.0171
      Cm = -0.0677     CD =  0.02374   =>   CDf =  0.00294    CDp =  0.02079

 MRCHDU: Convergence failed at  31  side 1    Res =  0.5233E-01
 Side 1  free  transition at x/c =  0.0682   27
 Side 2 forced transition at x/c =  1.0000   64

   7   rms: 0.1067E+01   max: -.4062E+01   D at   52  1   RLX: 0.123
       a =  6.000      CL =  0.8866
      Cm = -0.0285     CD =  0.02239   =>   CDf =  0.00442    CDp =  0.01798

 MRCHDU: Convergence failed at  62  side 1    Res =  0.1047E+01
 MRCHDU: Convergence failed at  63  side 1    Res =  0.9576E+00
 MRCHDU: Convergence failed at  64  side 1    Res =  0.1095E+01
 MRCHDU: Convergence failed at  65  side 1    Res =  0.1235E+01
 MRCHDU: Convergence failed at  66  side 1    Res =  0.1751E+01
 MRCHDU: Convergence failed at  67  side 1    Res =  0.2130E+01
 MRCHDU: Convergence failed at  68  side 1    Res =  0.2808E+01
 MRCHDU: Convergence failed at  69  side 1    Res =  0.4362E+01
 MRCHDU: Convergence failed at  70  side 1    Res =  0.9501E+01
 MRCHDU: Convergence failed at  71  side 1    Res =  0.5951E+02
 MRCHDU: Convergence failed at  72  side 1    Res =  0.5282E+01
 MRCHDU: Convergence failed at  73  side 1    Res =  0.3315E+01
 MRCHDU: Convergence failed at  74  side 1    Res =  0.2419E+01
 MRCHDU: Convergence failed at  75  side 1    Res =  0.6597E+01
 Side 1  free  transition at x/c =  0.0714   27
 Side 2 forced transition at x/c =  1.0000   64

   8   rms: 0.4644E+00   max: -.1531E+01   D at   60  1   RLX: 0.327
       a =  6.000      CL =  0.8253
      Cm = -0.0265     CD =  0.02193   =>   CDf =  0.00455    CDp =  0.01737

 Side 1  free  transition at x/c =  0.0770   27
 Side 2 forced transition at x/c =  1.0000   64

   9   rms: 0.1504E+02   max: -.1238E+03   T at   27  1   RLX: 0.004
       a =  6.000      CL =  0.8283
      Cm = -0.0329     CD =  0.02531   =>   CDf =  0.00512    CDp =  0.02019

 MRCHDU: Convergence failed at  28  side 1    Res =  0.2910E+02
 MRCHDU: Convergence failed at  29  side 1    Res =  0.7076E+01
 MRCHDU: Convergence failed at  30  side 1    Res =  0.8429E+01
 MRCHDU: Convergence failed at  33  side 1    Res =  0.2485E+01
 MRCHDU: Convergence failed at  34  side 1    Res =  0.1831E+01
 MRCHDU: Convergence failed at  35  side 1    Res =  0.1582E+01
 MRCHDU: Convergence failed at  36  side 1    Res =  0.2882E+01
 Side 1  free  transition at x/c =  0.0843   28
 Side 2 forced transition at x/c =  1.0000   64

  10   rms: 0.3195E+00   max: -.1259E+01   D at   44  1   RLX: 0.397
       a =  6.000      CL =  0.8249
      Cm = -0.0093     CD =  0.01221   =>   CDf =  0.00740    CDp =  0.00481

 Side 1  free  transition at x/c =  0.0808   28
 Side 2 forced transition at x/c =  1.0000   64

  11   rms: 0.1456E+00   max: -.7522E+00   D at   45  1   RLX: 0.665
       a =  6.000      CL =  0.7112
      Cm =  0.0005     CD =  0.01434   =>   CDf =  0.00787    CDp =  0.00646

 Side 1  free  transition at x/c =  0.0810   28
 Side 2 forced transition at x/c =  1.0000   64

  12   rms: 0.5631E-01   max: -.4273E+00   D at   45  1
       a =  6.000      CL =  0.6610
      Cm =  0.0056     CD =  0.01512   =>   CDf =  0.00767    CDp =  0.00745

 Side 1  free  transition at x/c =  0.0808   28
 Side 2 forced transition at x/c =  1.0000   64

  13   rms: 0.5898E-02   max: -.8526E-01   D at   45  1
       a =  6.000      CL =  0.6611
      Cm =  0.0056     CD =  0.01518   =>   CDf =  0.00753    CDp =  0.00765

 Side 1  free  transition at x/c =  0.0807   28
 Side 2 forced transition at x/c =  1.0000   64

  14   rms: 0.1697E-03   max: -.2657E-02   D at   45  1
       a =  6.000      CL =  0.6611
      Cm =  0.0056     CD =  0.01518   =>   CDf =  0.00753    CDp =  0.00765

 Side 1  free  transition at x/c =  0.0807   28
 Side 2 forced transition at x/c =  1.0000   64

  15   rms: 0.5501E-06   max: 0.4134E-05   D at   46  1
       a =  6.000      CL =  0.6611
      Cm =  0.0056     CD =  0.01518   =>   CDf =  0.00753    CDp =  0.00765
 Calculating wake trajectory ...
 Calculating source influence matrix ...

 Solving BL system ...

 Side 1  free  transition at x/c =  0.0807   28
 Side 2 forced transition at x/c =  1.0000   64

   1   rms: 0.1118E+00   max: 0.9093E+00   T at   28  1   RLX: 0.897
       a =  6.500      CL =  0.7085
      Cm =  0.0060     CD =  0.01622   =>   CDf =  0.00754    CDp =  0.00868

 MRCHDU: Convergence failed at  28  side 1    Res =  0.6069E+01
 MRCHDU: Convergence failed at  29  side 1    Res =  0.2465E+01
 MRCHDU: Convergence failed at  30  side 1    Res =  0.4680E+01
 MRCHDU: Convergence failed at  31  side 1    Res =  0.6976E+01
 MRCHDU: Convergence failed at  32  side 1    Res =  0.8437E+01
 MRCHDU: Convergence failed at  33  side 1    Res =  0.1064E+02
 MRCHDU: Convergence failed at  34  side 1    Res =  0.2295E+02
 MRCHDU: Convergence failed at  35  side 1    Res =  0.3989E+02
 MRCHDU: Convergence failed at  36  side 1    Res =  0.1165E+03
 MRCHDU: Convergence failed at  37  side 1    Res =  0.2221E+02
 MRCHDU: Convergence failed at  38  side 1    Res =  0.1729E+02
 MRCHDU: Convergence failed at  39  side 1    Res =  0.8214E+01
 MRCHDU: Convergence failed at  40  side 1    Res =  0.5237E+02
 MRCHDU: Convergence failed at  41  side 1    Res =  0.3361E+02
 MRCHDU: Convergence failed at  42  side 1    Res =  0.2666E+02
 MRCHDU: Convergence failed at  43  side 1    Res =  0.1290E+02
 MRCHDU: Convergence failed at  44  side 1    Res =  0.2206E+02
 MRCHDU: Convergence failed at  45  side 1    Res =  0.4484E+02
 MRCHDU: Convergence failed at  46  side 1    Res =  0.2474E+03
 MRCHDU: Convergence failed at  47  side 1    Res =  0.7750E+03
 MRCHDU: Convergence failed at  48  side 1    Res =  0.3431E+03
 MRCHDU: Convergence failed at  49  side 1    Res =  0.1366E+03
 MRCHDU: Convergence failed at  50  side 1    Res =  0.1186E+03
 MRCHDU: Convergence failed at  51  side 1    Res =  0.1079E+03
 MRCHDU: Convergence failed at  52  side 1    Res =  0.8976E+02
 MRCHDU: Convergence failed at  53  side 1    Res =  0.9776E+02
 MRCHDU: Convergence failed at  54  side 1    Res =  0.1075E+03
 MRCHDU: Convergence failed at  55  side 1    Res =  0.3076E+02
 MRCHDU: Convergence failed at  56  side 1    Res =  0.3093E+02
 MRCHDU: Convergence failed at  57  side 1    Res =  0.3072E+02
 MRCHDU: Convergence failed at  58  side 1    Res =  0.3294E+02
 MRCHDU: Convergence failed at  59  side 1    Res =  0.3214E+02
 MRCHDU: Convergence failed at  60  side 1    Res =  0.3275E+02
 MRCHDU: Convergence failed at  61  side 1    Res =  0.3302E+02
 MRCHDU: Convergence failed at  62  side 1    Res =  0.3187E+02
 MRCHDU: Convergence failed at  63  side 1    Res =  0.3180E+02
 MRCHDU: Convergence failed at  64  side 1    Res =  0.2942E+02
 MRCHDU: Convergence failed at  65  side 1    Res =  0.2840E+02
 MRCHDU: Convergence failed at  66  side 1    Res =  0.2581E+02
 MRCHDU: Convergence failed at  67  side 1    Res =  0.8569E+02
 MRCHDU: Convergence failed at  68  side 1    Res =  0.9192E+02
 MRCHDU: Convergence failed at  69  side 1    Res =  0.4533E+02
 MRCHDU: Convergence failed at  70  side 1    Res =  0.5238E+02
 MRCHDU: Convergence failed at  71  side 1    Res =  0.5366E+02
 MRCHDU: Convergence failed at  72  side 1    Res =  0.5803E+02
 MRCHDU: Convergence failed at  73  side 1    Res =  0.5075E+02
 MRCHDU: Convergence failed at  74  side 1    Res =  0.6079E+02
 MRCHDU: Convergence failed at  75  side 1    Res =  0.7883E+02
 MRCHDU: Convergence failed at  76  side 1    Res =  0.6242E+02
 MRCHDU: Convergence failed at  77  side 1    Res =  0.1625E+03
 MRCHDU: Convergence failed at  78  side 1    Res =  0.1085E+04
 Side 1  free  transition at x/c =  0.0703   27
 Side 2 forced transition at x/c =  1.0000   64

   2   rms: 0.1114E+01   max: -.4697E+01   C at   64  2   RLX: 0.106
       a =  6.500      CL =  1.8819
      Cm = -0.4088     CD =  0.00661   =>   CDf =  0.00278    CDp =  0.00383

 MRCHDU: Convergence failed at  38  side 1    Res =  0.9991E-01
 MRCHDU: Convergence failed at  51  side 1    Res =  0.1444E+00
 MRCHDU: Convergence failed at  52  side 1    Res =  0.1248E+00
 MRCHDU: Convergence failed at  53  side 1    Res =  0.9848E-01
 Side 1  free  transition at x/c =  0.0675   27
 Side 2 forced transition at x/c =  1.0000   64

   3   rms: 0.4890E+00   max: -.6249E+00   D at   65  2   RLX: 0.397
       a =  6.500      CL =  1.1167
      Cm = -0.1495     CD =  0.02626   =>   CDf =  0.00488    CDp =  0.02139

 MRCHDU: Convergence failed at  38  side 1    Res =  0.4839E-01
 MRCHDU: Convergence failed at  53  side 1    Res =  0.1750E+00
 MRCHDU: Convergence failed at  54  side 1    Res =  0.4109E+00
 Side 1  free  transition at x/c =  0.0706   27
 Side 2 forced transition at x/c =  1.0000   64

   4   rms: 0.4519E+00   max: -.1460E+01   D at   34  1   RLX: 0.343
       a =  6.500      CL =  0.8419
      Cm = -0.0397     CD =  0.02581   =>   CDf =  0.00441    CDp =  0.02139

 Side 1  free  transition at x/c =  0.0763   27
 Side 2 forced transition at x/c =  1.0000   64

   5   rms: 0.4261E+01   max: 0.1694E+02   D at   45  1   RLX: 0.029
       a =  6.500      CL =  0.8814
      Cm = -0.0491     CD =  0.02984   =>   CDf =  0.00531    CDp =  0.02453

 Side 1  free  transition at x/c =  0.0685   27
 Side 2 forced transition at x/c =  1.0000   64

   6   rms: 0.4705E+00   max: -.1654E+01   D at   73  1   RLX: 0.302
       a =  6.500      CL =  0.7679
      Cm = -0.0113     CD =  0.02418   =>   CDf =  0.00450    CDp =  0.01967

 Side 1  free  transition at x/c =  0.0714   27
 Side 2 forced transition at x/c =  1.0000   64

   7   rms: 0.5580E+00   max: -.2042E+01   D at   54  1   RLX: 0.245
       a =  6.500      CL =  0.7170
      Cm =  0.0078     CD =  0.01981   =>   CDf =  0.00501    CDp =  0.01480

 Side 1  free  transition at x/c =  0.0731   27
 Side 2 forced transition at x/c =  1.0000   64

   8   rms: 0.6931E+00   max: -.2645E+01   D at   47  1   RLX: 0.189
       a =  6.500      CL =  0.6988
      Cm =  0.0149     CD =  0.01774   =>   CDf =  0.00557    CDp =  0.01217

 Side 1  free  transition at x/c =  0.0750   27
 Side 2 forced transition at x/c =  1.0000   64

   9   rms: 0.4794E+00   max: 0.1558E+01   C at   64  2   RLX: 0.325
       a =  6.500      CL =  0.7289
      Cm =  0.0111     CD =  0.01594   =>   CDf =  0.00642    CDp =  0.00951

 MRCHDU: Convergence failed at  40  side 1    Res =  0.1285E+01
 Side 1  free  transition at x/c =  0.0678   27
 Side 2 forced transition at x/c =  1.0000   64

  10   rms: 0.4900E+00   max: 0.2488E+01   C at   64  2   RLX: 0.289
       a =  6.500      CL =  0.8182
      Cm = -0.0080     CD =  0.01691   =>   CDf =  0.00717    CDp =  0.00974

 MRCHDU: Convergence failed at  28  side 1    Res =  0.2119E+01
 MRCHDU: Convergence failed at  29  side 1    Res =  0.3006E+01
 MRCHDU: Convergence failed at  30  side 1    Res =  0.9818E+01
 MRCHDU: Convergence failed at  31  side 1    Res =  0.4197E+01
 MRCHDU: Convergence failed at  32  side 1    Res =  0.7369E+01
 MRCHDU: Convergence failed at  33  side 1    Res =  0.7023E+01
 MRCHDU: Convergence failed at  34  side 1    Res =  0.7560E+01
 MRCHDU: Convergence failed at  35  side 1    Res =  0.8821E+01
 MRCHDU: Convergence failed at  36  side 1    Res =  0.1071E+02
 MRCHDU: Convergence failed at  37  side 1    Res =  0.1331E+02
 MRCHDU: Convergence failed at  38  side 1    Res =  0.2622E+02
 MRCHDU: Convergence failed at  39  side 1    Res =  0.7717E+01
 MRCHDU: Convergence failed at  40  side 1    Res =  0.6877E+01
 MRCHDU: Convergence failed at  41  side 1    Res =  0.7717E+01
 MRCHDU: Convergence failed at  42  side 1    Res =  0.1335E+02
 MRCHDU: Convergence failed at  43  side 1    Res =  0.3235E+02
 MRCHDU: Convergence failed at  44  side 1    Res =  0.2957E+02
 MRCHDU: Convergence failed at  45  side 1    Res =  0.3950E+02
 MRCHDU: Convergence failed at  46  side 1    Res =  0.4491E+02
 MRCHDU: Convergence failed at  47  side 1    Res =  0.5259E+02
 MRCHDU: Convergence failed at  48  side 1    Res =  0.4802E+02
 MRCHDU: Convergence failed at  49  side 1    Res =  0.5532E+02
 MRCHDU: Convergence failed at  50  side 1    Res =  0.5109E+02
 MRCHDU: Convergence failed at  51  side 1    Res =  0.4141E+02
 MRCHDU: Convergence failed at  52  side 1    Res =  0.5979E+02
 MRCHDU: Convergence failed at  53  side 1    Res =  0.5319E+02
 MRCHDU: Convergence failed at  54  side 1    Res =  0.2047E+02
 MRCHDU: Convergence failed at  55  side 1    Res =  0.9930E+02
 MRCHDU: Convergence failed at  56  side 1    Res =  0.3897E+03
 MRCHDU: Convergence failed at  57  side 1    Res =  0.3146E+02
 MRCHDU: Convergence failed at  58  side 1    Res =  0.5882E+02
 MRCHDU: Convergence failed at  59  side 1    Res =  0.5905E+02
 MRCHDU: Convergence failed at  60  side 1    Res =  0.4213E+02
 MRCHDU: Convergence failed at  61  side 1    Res =  0.5011E+02
 MRCHDU: Convergence failed at  62  side 1    Res =  0.6048E+02
 MRCHDU: Convergence failed at  63  side 1    Res =  0.7556E+02
 MRCHDU: Convergence failed at  64  side 1    Res =  0.9875E+02
 MRCHDU: Convergence failed at  65  side 1    Res =  0.6108E+02
 MRCHDU: Convergence failed at  66  side 1    Res =  0.7303E+02
 MRCHDU: Convergence failed at  67  side 1    Res =  0.9118E+02
 MRCHDU: Convergence failed at  68  side 1    Res =  0.6412E+02
 MRCHDU: Convergence failed at  69  side 1    Res =  0.8410E+02
 MRCHDU: Convergence failed at  70  side 1    Res =  0.7320E+02
 MRCHDU: Convergence failed at  71  side 1    Res =  0.2397E+02
 MRCHDU: Convergence failed at  72  side 1    Res =  0.2132E+02
 MRCHDU: Convergence failed at  73  side 1    Res =  0.8811E+02
 MRCHDU: Convergence failed at  74  side 1    Res =  0.1974E+02
 MRCHDU: Convergence failed at  75  side 1    Res =  0.3409E+02
 MRCHDU: Convergence failed at  76  side 1    Res =  0.2625E+02
 MRCHDU: Convergence failed at  77  side 1    Res =  0.2004E+02
 MRCHDU: Convergence failed at  78  side 1    Res =  0.2323E+02
 MRCHDU: Convergence failed at  79  side 1    Res =  0.4371E+02
 Side 1  free  transition at x/c =  0.0642   27
 Side 2 forced transition at x/c =  1.0000   63

  11   rms: 0.1361E+01   max: -.5950E+01   C at   63  2   RLX: 0.084
       a =  6.500      CL =  2.3682
      Cm = -0.5383     CD =  0.00418   =>   CDf =  0.00242    CDp =  0.00176

 Side 1  free  transition at x/c =  0.0642   27
 Side 2 forced transition at x/c =  1.0000   63

  12   rms: 0.6244E+00   max: 0.8058E+00   D at   67  2   RLX: 0.320
       a =  6.500      CL =  1.6383
      Cm = -0.2736     CD =  0.01498   =>   CDf =  0.01020    CDp =  0.00478

 Side 1  free  transition at x/c =  0.0615   27
 Side 2 forced transition at x/c =  1.0000   63

  13   rms: 0.4576E+00   max: -.5792E+00   D at   64  2   RLX: 0.496
       a =  6.500      CL =  1.1876
      Cm = -0.1294     CD =  0.01526   =>   CDf =  0.00888    CDp =  0.00639

 Side 1  free  transition at x/c =  0.0600   27
 Side 2 forced transition at x/c =  1.0000   63

  14   rms: 0.3431E+00   max: 0.1804E+01   C at   63  2   RLX: 0.469
       a =  6.500      CL =  1.0161
      Cm = -0.0691     CD =  0.01330   =>   CDf =  0.00828    CDp =  0.00502

 Side 1  free  transition at x/c =  0.0568   27
 Side 2 forced transition at x/c =  1.0000   63

  15   rms: 0.2337E+00   max: 0.1556E+01   C at   63  2   RLX: 0.648
       a =  6.500      CL =  0.9641
      Cm = -0.0508     CD =  0.01613   =>   CDf =  0.00847    CDp =  0.00766
 VISCAL:  Convergence failed
 Calculating wake trajectory ...
 Calculating source influence matrix ...

 Solving BL system ...

 MRCHDU: Convergence failed at  27  side 1    Res =  0.6226E+01
 MRCHDU: Convergence failed at  28  side 1    Res =  0.4354E+01
 MRCHDU: Convergence failed at  29  side 1    Res =  0.8544E+01
 MRCHDU: Convergence failed at  30  side 1    Res =  0.9370E+01
 MRCHDU: Convergence failed at  31  side 1    Res =  0.1026E+02
 MRCHDU: Convergence failed at  32  side 1    Res =  0.1279E+02
 MRCHDU: Convergence failed at  33  side 1    Res =  0.1727E+02
 MRCHDU: Convergence failed at  34  side 1    Res =  0.2604E+02
 MRCHDU: Convergence failed at  35  side 1    Res =  0.1070E+03
 MRCHDU: Convergence failed at  36  side 1    Res =  0.3655E+02
 MRCHDU: Convergence failed at  37  side 1    Res =  0.3236E+02
 MRCHDU: Convergence failed at  38  side 1    Res =  0.2845E+02
 MRCHDU: Convergence failed at  39  side 1    Res =  0.3597E+02
 MRCHDU: Convergence failed at  40  side 1    Res =  0.3411E+02
 MRCHDU: Convergence failed at  41  side 1    Res =  0.3721E+02
 MRCHDU: Convergence failed at  42  side 1    Res =  0.1788E+03
 MRCHDU: Convergence failed at  43  side 1    Res =  0.5634E+03
 MRCHDU: Convergence failed at  44  side 1    Res =  0.2321E+04
 MRCHDU: Convergence failed at  45  side 1    Res =  0.3343E+03
 MRCHDU: Convergence failed at  46  side 1    Res =  0.2440E+02
 MRCHDU: Convergence failed at  47  side 1    Res =  0.2357E+02
 MRCHDU: Convergence failed at  48  side 1    Res =  0.2304E+02
 MRCHDU: Convergence failed at  49  side 1    Res =  0.2315E+02
 MRCHDU: Convergence failed at  50  side 1    Res =  0.2381E+02
 MRCHDU: Convergence failed at  51  side 1    Res =  0.3895E+02
 MRCHDU: Convergence failed at  52  side 1    Res =  0.2651E+02
 MRCHDU: Convergence failed at  53  side 1    Res =  0.2770E+02
 MRCHDU: Convergence failed at  54  side 1    Res =  0.2924E+02
 MRCHDU: Convergence failed at  55  side 1    Res =  0.2138E+02
 MRCHDU: Convergence failed at  56  side 1    Res =  0.2539E+02
 MRCHDU: Convergence failed at  57  side 1    Res =  0.2677E+02
 MRCHDU: Convergence failed at  58  side 1    Res =  0.2823E+02
 MRCHDU: Convergence failed at  59  side 1    Res =  0.2867E+02
 MRCHDU: Convergence failed at  60  side 1    Res =  0.2890E+02
 MRCHDU: Convergence failed at  61  side 1    Res =  0.2751E+02
 MRCHDU: Convergence failed at  62  side 1    Res =  0.2710E+02
 MRCHDU: Convergence failed at  63  side 1    Res =  0.2040E+02
 MRCHDU: Convergence failed at  64  side 1    Res =  0.2791E+02
 MRCHDU: Convergence failed at  65  side 1    Res =  0.2934E+02
 MRCHDU: Convergence failed at  66  side 1    Res =  0.3040E+02
 MRCHDU: Convergence failed at  67  side 1    Res =  0.3146E+02
 MRCHDU: Convergence failed at  68  side 1    Res =  0.3245E+02
 MRCHDU: Convergence failed at  69  side 1    Res =  0.3336E+02
 MRCHDU: Convergence failed at  70  side 1    Res =  0.3411E+02
 MRCHDU: Convergence failed at  71  side 1    Res =  0.3473E+02
 MRCHDU: Convergence failed at  72  side 1    Res =  0.3504E+02
 MRCHDU: Convergence failed at  73  side 1    Res =  0.3523E+02
 MRCHDU: Convergence failed at  74  side 1    Res =  0.3527E+02
 MRCHDU: Convergence failed at  75  side 1    Res =  0.7021E+02
 MRCHDU: Convergence failed at  76  side 1    Res =  0.1036E+03
 MRCHDU: Convergence failed at  77  side 1    Res =  0.6857E+02
 MRCHDU: Convergence failed at  78  side 1    Res =  0.1295E+03
 MRCHDU: Convergence failed at  79  side 1    Res =  0.1691E+03
 Side 1  free  transition at x/c =  0.0496   26
 Side 2 forced transition at x/c =  1.0000   63

   1   rms: 0.1652E+01   max: 0.9720E+01   D at   65  2   RLX: 0.053
       a =  7.000      CL =  2.5721
      Cm = -0.5939     CD =  0.00408   =>   CDf =  0.00232    CDp =  0.00176

 MRCHDU: Convergence failed at  32  side 1    Res =  0.2222E+00
 MRCHDU: Convergence failed at  33  side 1    Res =  0.2155E+00
 MRCHDU: Convergence failed at  34  side 1    Res =  0.2082E+00
 MRCHDU: Convergence failed at  35  side 1    Res =  0.2001E+00
 MRCHDU: Convergence failed at  36  side 1    Res =  0.1904E+00
 MRCHDU: Convergence failed at  37  side 1    Res =  0.1768E+00
 MRCHDU: Convergence failed at  38  side 1    Res =  0.1549E+00
 MRCHDU: Convergence failed at  39  side 1    Res =  0.7403E-01
 MRCHDU: Convergence failed at  55  side 1    Res =  0.1743E+00
 MRCHDU: Convergence failed at  56  side 1    Res =  0.1571E+00
 MRCHDU: Convergence failed at  57  side 1    Res =  0.1397E+00
 MRCHDU: Convergence failed at  58  side 1    Res =  0.1212E+00
 MRCHDU: Convergence failed at  59  side 1    Res =  0.1032E+00
 MRCHDU: Convergence failed at  60  side 1    Res =  0.8379E-01
 MRCHDU: Convergence failed at  61  side 1    Res =  0.3937E-03
 Side 1  free  transition at x/c =  0.0508   26
 Side 2 forced transition at x/c =  1.0000   63

   2   rms: 0.6916E+00   max: -.3060E+01   C at   63  2   RLX: 0.163
       a =  7.000      CL =  1.8129
      Cm = -0.3664     CD =  0.02014   =>   CDf =  0.00430    CDp =  0.01584

 MRCHDU: Convergence failed at  39  side 1    Res =  0.4955E+00
 MRCHDU: Convergence failed at  40  side 1    Res =  0.7757E+00
 MRCHDU: Convergence failed at  41  side 1    Res =  0.2127E+00
 MRCHDU: Convergence failed at  42  side 1    Res =  0.1361E+00
 MRCHDU: Convergence failed at  43  side 1    Res =  0.6458E-02
 MRCHDU: Convergence failed at  60  side 1    Res =  0.5386E+00
 MRCHDU: Convergence failed at  61  side 1    Res =  0.1102E+01
 MRCHDU: Convergence failed at  62  side 1    Res =  0.3429E+00
 MRCHDU: Convergence failed at  63  side 1    Res =  0.3043E+00
 MRCHDU: Convergence failed at  64  side 1    Res =  0.2358E+00
 MRCHDU: Convergence failed at  65  side 1    Res =  0.1507E+00
 Side 1  free  transition at x/c =  0.0505   26
 Side 2 forced transition at x/c =  1.0000   63

   3   rms: 0.4823E+00   max: -.1253E+01   C at   63  2   RLX: 0.399
       a =  7.000      CL =  1.2287
      Cm = -0.1614     CD =  0.02657   =>   CDf =  0.00387    CDp =  0.02270

 MRCHDU: Convergence failed at  43  side 1    Res =  0.2266E+00
 MRCHDU: Convergence failed at  44  side 1    Res =  0.3285E+00
 MRCHDU: Convergence failed at  66  side 1    Res =  0.3206E+00
 MRCHDU: Convergence failed at  67  side 1    Res =  0.6010E+00
 MRCHDU: Convergence failed at  70  side 1    Res =  0.1333E+01
 MRCHDU: Convergence failed at  71  side 1    Res =  0.1588E+01
 MRCHDU: Convergence failed at  72  side 1    Res =  0.1406E+01
 MRCHDU: Convergence failed at  73  side 1    Res =  0.6633E+00
 Side 1  free  transition at x/c =  0.0535   26
 Side 2 forced transition at x/c =  1.0000   63

   4   rms: 0.5146E+00   max: 0.3856E+01   T at   26  1   RLX: 0.274
       a =  7.000      CL =  1.0246
      Cm = -0.0850     CD =  0.03112   =>   CDf =  0.00517    CDp =  0.02595

 Side 1  free  transition at x/c =  0.0452   25
 Side 2 forced transition at x/c =  1.0000   63

   5   rms: 0.1248E+01   max: -.6380E+01   T at   25  1   RLX: 0.078
       a =  7.000      CL =  1.0023
      Cm = -0.0769     CD =  0.03266   =>   CDf =  0.00415    CDp =  0.02851

 MRCHDU: Convergence failed at  68  side 1    Res =  0.1240E-01
 Side 1  free  transition at x/c =  0.0505   26
 Side 2 forced transition at x/c =  1.0000   63

   6   rms: 0.8337E+00   max: -.4244E+01   D at   45  1   RLX: 0.118
       a =  7.000      CL =  0.9268
      Cm = -0.0601     CD =  0.02539   =>   CDf =  0.00509    CDp =  0.02030

 MRCHDU: Convergence failed at  68  side 1    Res =  0.2395E-01
 Side 1  free  transition at x/c =  0.0533   26
 Side 2 forced transition at x/c =  1.0000   63

   7   rms: 0.1349E+01   max: -.7062E+01   D at   45  1   RLX: 0.071
       a =  7.000      CL =  0.9075
      Cm = -0.0566     CD =  0.02252   =>   CDf =  0.00561    CDp =  0.01691

 Side 1  free  transition at x/c =  0.0561   27
 Side 2 forced transition at x/c =  1.0000   63

   8   rms: 0.5254E+00   max: -.2464E+01   D at   37  1   RLX: 0.203
       a =  7.000      CL =  0.8943
      Cm = -0.0471     CD =  0.02289   =>   CDf =  0.00577    CDp =  0.01711

 Side 1  free  transition at x/c =  0.0570   27
 Side 2 forced transition at x/c =  1.0000   63

   9   rms: 0.4418E+00   max: -.2075E+01   D at   39  1   RLX: 0.241
       a =  7.000      CL =  0.8778
      Cm = -0.0350     CD =  0.02187   =>   CDf =  0.00610    CDp =  0.01576

 MRCHDU: Convergence failed at  45  side 1    Res =  0.1161E-01
 Side 1  free  transition at x/c =  0.0573   27
 Side 2 forced transition at x/c =  1.0000   63

  10   rms: 0.3629E+00   max: -.1523E+01   D at   41  1   RLX: 0.328
       a =  7.000      CL =  0.8638
      Cm = -0.0227     CD =  0.02007   =>   CDf =  0.00646    CDp =  0.01361

 Side 1  free  transition at x/c =  0.0560   26
 Side 2 forced transition at x/c =  1.0000   63

  11   rms: 0.3393E+00   max: 0.2225E+01   C at   63  2   RLX: 0.411
       a =  7.000      CL =  0.8672
      Cm = -0.0132     CD =  0.01874   =>   CDf =  0.00648    CDp =  0.01227

 Side 1  free  transition at x/c =  0.0487   27
 Side 2 forced transition at x/c =  1.0000   62
 idif Ue xi dudx           1  0.11516534      3.61812115E-03   31.830151    
 Uenew xinew           2  1.74165238E-03  5.47170639E-05

  12   rms: 0.3177E+00   max: -.1488E+01   D at   61  1   RLX: 0.336
       a =  7.000      CL =  0.8498
      Cm = -0.0089     CD =  0.01806   =>   CDf =  0.00673    CDp =  0.01133

 Side 1  free  transition at x/c =  0.0491   26
 Side 2 forced transition at x/c =  1.0000   63

  13   rms: 0.4930E+00   max: -.5856E+01   D at    2  2   RLX: 0.085
       a =  7.000      CL =  0.8509
      Cm = -0.0115     CD =  0.01889   =>   CDf =  0.00686    CDp =  0.01203

 Side 1  free  transition at x/c =  0.0498   26
 Side 2 forced transition at x/c =  1.0000   63

  14   rms: 0.2632E+00   max: -.1292E+01   C at   63  2   RLX: 0.387
       a =  7.000      CL =  0.7940
      Cm =  0.0026     CD =  0.01822   =>   CDf =  0.00697    CDp =  0.01125

 MRCHDU: Convergence failed at  53  side 1    Res =  0.1951E+00
 Side 1  free  transition at x/c =  0.0525   26
 Side 2 forced transition at x/c =  1.0000   63

  15   rms: 0.1694E+00   max: -.8334E+00   C at   63  2   RLX: 0.600
       a =  7.000      CL =  0.7578
      Cm =  0.0090     CD =  0.01847   =>   CDf =  0.00735    CDp =  0.01113
 VISCAL:  Convergence failed
 Calculating wake trajectory ...
 Calculating source influence matrix ...

 Solving BL system ...

 Side 1  free  transition at x/c =  0.0555   26
 Side 2 forced transition at x/c =  1.0000   63

   1   rms: 0.1411E+00   max: 0.1176E+01   T at   26  1   RLX: 0.497
       a =  7.500      CL =  0.7851
      Cm =  0.0092     CD =  0.01820   =>   CDf =  0.00748    CDp =  0.01072

 Side 1  free  transition at x/c =  0.0499   26
 Side 2 forced transition at x/c =  1.0000   63

   2   rms: 0.8979E-01   max: -.6365E+00   D at   27  1   RLX: 0.786
       a =  7.500      CL =  0.8092
      Cm =  0.0080     CD =  0.01876   =>   CDf =  0.00706    CDp =  0.01170

 Side 1  free  transition at x/c =  0.0468   26
 Side 2 forced transition at x/c =  1.0000   62

   3   rms: 0.3009E-01   max: 0.3099E+00   T at   26  1
       a =  7.500      CL =  0.8167
      Cm =  0.0075     CD =  0.01948   =>   CDf =  0.00728    CDp =  0.01219

 Side 1  free  transition at x/c =  0.0441   26
 Side 2 forced transition at x/c =  1.0000   62

   4   rms: 0.3290E-02   max: -.3784E-01   D at   27  1
       a =  7.500      CL =  0.8163
      Cm =  0.0075     CD =  0.01965   =>   CDf =  0.00723    CDp =  0.01241

 Side 1  free  transition at x/c =  0.0440   26
 Side 2 forced transition at x/c =  1.0000   62

   5   rms: 0.8075E-04   max: 0.7500E-03   D at   27  1
       a =  7.500      CL =  0.8163
      Cm =  0.0075     CD =  0.01965   =>   CDf =  0.00724    CDp =  0.01241
 Calculating wake trajectory ...
 Calculating source influence matrix ...

 Solving BL system ...

 Side 1  free  transition at x/c =  0.0440   26
 Side 2 forced transition at x/c =  1.0000   62

   1   rms: 0.1008E+00   max: 0.8007E+00   T at   26  1
       a =  8.000      CL =  0.8678
      Cm =  0.0082     CD =  0.02101   =>   CDf =  0.00724    CDp =  0.01377

 Side 1  free  transition at x/c =  0.0378   25
 Side 2 forced transition at x/c =  1.0000   62

   2   rms: 0.5166E-01   max: -.3025E+00   D at   25  1
       a =  8.000      CL =  0.8654
      Cm =  0.0082     CD =  0.02177   =>   CDf =  0.00683    CDp =  0.01494

 Side 1  free  transition at x/c =  0.0368   25
 Side 2 forced transition at x/c =  1.0000   62

   3   rms: 0.1038E-02   max: -.1521E-01   D at   28  1
       a =  8.000      CL =  0.8654
      Cm =  0.0083     CD =  0.02182   =>   CDf =  0.00704    CDp =  0.01477

 Side 1  free  transition at x/c =  0.0368   25
 Side 2 forced transition at x/c =  1.0000   62

   4   rms: 0.8164E-05   max: -.1212E-03   D at   28  1
       a =  8.000      CL =  0.8654
      Cm =  0.0083     CD =  0.02182   =>   CDf =  0.00705    CDp =  0.01477
 Calculating wake trajectory ...
 Calculating source influence matrix ...

 Solving BL system ...

 Side 1  free  transition at x/c =  0.0368   25
 Side 2 forced transition at x/c =  1.0000   62

   1   rms: 0.9856E-01   max: 0.7593E+00   T at   25  1
       a =  8.500      CL =  0.9154
      Cm =  0.0090     CD =  0.02337   =>   CDf =  0.00677    CDp =  0.01661

 Side 1  free  transition at x/c =  0.0320   25
 Side 2 forced transition at x/c =  1.0000   61

   2   rms: 0.4230E-01   max: -.2642E+00   D at   25  1
       a =  8.500      CL =  0.9125
      Cm =  0.0090     CD =  0.02443   =>   CDf =  0.00652    CDp =  0.01792

 Side 1  free  transition at x/c =  0.0315   25
 Side 2 forced transition at x/c =  1.0000   61

   3   rms: 0.3269E-02   max: 0.2519E-01   D at   27  1
       a =  8.500      CL =  0.9124
      Cm =  0.0091     CD =  0.02443   =>   CDf =  0.00678    CDp =  0.01764

 Side 1  free  transition at x/c =  0.0315   25
 Side 2 forced transition at x/c =  1.0000   61

   4   rms: 0.2692E-04   max: 0.2482E-03   D at   26  1
       a =  8.500      CL =  0.9124
      Cm =  0.0091     CD =  0.02442   =>   CDf =  0.00677    CDp =  0.01765
 Calculating wake trajectory ...
 Calculating source influence matrix ...

 Solving BL system ...

 Side 1  free  transition at x/c =  0.0315   25
 Side 2 forced transition at x/c =  1.0000   61

   1   rms: 0.1002E+00   max: 0.5522E+00   T at   25  1
       a =  9.000      CL =  0.9588
      Cm =  0.0101     CD =  0.02734   =>   CDf =  0.00678    CDp =  0.02056

 Side 1  free  transition at x/c =  0.0281   24
 Side 2 forced transition at x/c =  1.0000   61

   2   rms: 0.8199E-01   max: -.2800E+00   D at   25  1
       a =  9.000      CL =  0.9578
      Cm =  0.0098     CD =  0.02761   =>   CDf =  0.00616    CDp =  0.02146

 Side 1  free  transition at x/c =  0.0282   24
 Side 2 forced transition at x/c =  1.0000   61

   3   rms: 0.8972E-02   max: 0.5748E-01   D at   25  1
       a =  9.000      CL =  0.9553
      Cm =  0.0100     CD =  0.02811   =>   CDf =  0.00659    CDp =  0.02152

 Side 1  free  transition at x/c =  0.0282   24
 Side 2 forced transition at x/c =  1.0000   61

   4   rms: 0.2263E-03   max: 0.1233E-02   D at   25  1
       a =  9.000      CL =  0.9553
      Cm =  0.0100     CD =  0.02811   =>   CDf =  0.00659    CDp =  0.02151

 Side 1  free  transition at x/c =  0.0282   24
 Side 2 forced transition at x/c =  1.0000   61

   5   rms: 0.5350E-05   max: 0.1810E-04   D at   47  1
       a =  9.000      CL =  0.9553
      Cm =  0.0100     CD =  0.02811   =>   CDf =  0.00659    CDp =  0.02151
 Calculating wake trajectory ...
 Calculating source influence matrix ...

 Solving BL system ...

 Side 1  free  transition at x/c =  0.0282   24
 Side 2 forced transition at x/c =  1.0000   61

   1   rms: 0.1062E+00   max: 0.5979E+00   T at   24  1
       a =  9.500      CL =  0.9976
      Cm =  0.0113     CD =  0.03165   =>   CDf =  0.00625    CDp =  0.02540

 Side 1  free  transition at x/c =  0.0262   25
 Side 2 forced transition at x/c =  1.0000   60
 idif Ue xi dudx           1  0.10452875      4.45795059E-03   23.447716    
 Uenew xinew           2  2.99084844E-04  1.27553940E-05

   2   rms: 0.4279E-01   max: -.1257E+00   D at   82  1
       a =  9.500      CL =  0.9925
      Cm =  0.0110     CD =  0.03315   =>   CDf =  0.00555    CDp =  0.02759

 Side 1  free  transition at x/c =  0.0263   24
 Side 2 forced transition at x/c =  1.0000   61

   3   rms: 0.2674E-01   max: -.4373E+00   T at    2  2
       a =  9.500      CL =  0.9902
      Cm =  0.0111     CD =  0.03351   =>   CDf =  0.00558    CDp =  0.02793

 Side 1  free  transition at x/c =  0.0263   24
 Side 2 forced transition at x/c =  1.0000   61

   4   rms: 0.1492E-02   max: -.1750E-01   D at    4  2
       a =  9.500      CL =  0.9902
      Cm =  0.0111     CD =  0.03351   =>   CDf =  0.00557    CDp =  0.02794

 Side 1  free  transition at x/c =  0.0263   24
 Side 2 forced transition at x/c =  1.0000   61

   5   rms: 0.2385E-05   max: -.3167E-04   D at    4  2
       a =  9.500      CL =  0.9902
      Cm =  0.0111     CD =  0.03351   =>   CDf =  0.00557    CDp =  0.02794
 Calculating wake trajectory ...
 Calculating source influence matrix ...

 Solving BL system ...

 Side 1  free  transition at x/c =  0.0263   24
 Side 2 forced transition at x/c =  1.0000   61

   1   rms: 0.1176E+00   max: 0.3126E+00   T at   24  1
       a = 10.000      CL =  1.0194
      Cm =  0.0120     CD =  0.03986   =>   CDf =  0.00525    CDp =  0.03460

 Side 1  free  transition at x/c =  0.0244   25
 Side 2 forced transition at x/c =  1.0000   60

   2   rms: 0.1182E+02   max: -.2744E+02   D at   62  1   RLX: 0.018
       a = 10.000      CL =  1.0929
      Cm =  0.0128     CD =  0.03138   =>   CDf =  0.00409    CDp =  0.02728

 Side 1  free  transition at x/c =  0.0233   24
 Side 2 forced transition at x/c =  1.0000   60

   3   rms: 0.1650E+00   max: -.5322E+00   D at   68  1   RLX: 0.939
       a = 10.000      CL =  1.0378
      Cm =  0.0183     CD =  0.03459   =>   CDf =  0.00430    CDp =  0.03029

 Side 1  free  transition at x/c =  0.0241   25
 Side 2 forced transition at x/c =  1.0000   60

   4   rms: 0.8571E-01   max: -.4761E+00   C at   60  2
       a = 10.000      CL =  1.0307
      Cm =  0.0115     CD =  0.03648   =>   CDf =  0.00574    CDp =  0.03074

 Side 1  free  transition at x/c =  0.0244   25
 Side 2 forced transition at x/c =  1.0000   60

   5   rms: 0.3381E-01   max: 0.1361E+00   D at   26  1
       a = 10.000      CL =  1.0224
      Cm =  0.0118     CD =  0.03804   =>   CDf =  0.00531    CDp =  0.03273

 Side 1  free  transition at x/c =  0.0245   25
 Side 2 forced transition at x/c =  1.0000   60

   6   rms: 0.4909E-02   max: 0.1714E-01   D at   26  1
       a = 10.000      CL =  1.0221
      Cm =  0.0117     CD =  0.03806   =>   CDf =  0.00514    CDp =  0.03292

 Side 1  free  transition at x/c =  0.0245   25
 Side 2 forced transition at x/c =  1.0000   60

   7   rms: 0.1187E-03   max: 0.4397E-03   D at   27  1
       a = 10.000      CL =  1.0220
      Cm =  0.0117     CD =  0.03806   =>   CDf =  0.00511    CDp =  0.03295

 Side 1  free  transition at x/c =  0.0245   25
 Side 2 forced transition at x/c =  1.0000   60

   8   rms: 0.2173E-05   max: -.7474E-05   T at   25  1
       a = 10.000      CL =  1.0220
      Cm =  0.0117     CD =  0.03806   =>   CDf =  0.00511    CDp =  0.03295

.OPERv   c>  
 Solving BL system ...

 Side 1  free  transition at x/c =  0.0245   25
 Side 2 forced transition at x/c =  1.0000   60

   1   rms: 0.1553E-05   max: 0.5009E-05   D at   26  1
       a = 10.000      CL =  1.0220
      Cm =  0.0117     CD =  0.03806   =>   CDf =  0.00511    CDp =  0.03295

.OPERv   c>  
.OPERv   c>  
Enter flap hinge x location   r>  
  Top    surface:  y =  0.0160     y/t = 1.0
  Bottom surface:  y = -0.0160     y/t = 0.0

Enter flap hinge y location (or 999 to specify y/t)   r>  
 Flap hinge x,y :  0.7000  0.0000
                                           2  2
 Hinge moment/span = 0.006288  x  1/2 rho V  c 
                                           2   
 x-Force     /span = -.000794  x  1/2 rho V  c 
                                           2   
 y-Force     /span = 0.065612  x  1/2 rho V  c 


.OPERv   c>  
 Solving BL system ...

 Side 1  free  transition at x/c =  0.0245   25
 Side 2 forced transition at x/c =  1.0000   60

   1   rms: 0.1507E-05   max: 0.4041E-05   D at   50  1
       a = 10.000      CL =  1.0220
      Cm =  0.0117     CD =  0.03806   =>   CDf =  0.00511    CDp =  0.03295
 Calculating wake trajectory ...
 Calculating source influence matrix ...

 Solving BL system ...

 Side 1  free  transition at x/c =  0.0245   25
 Side 2 forced transition at x/c =  1.0000   60

   1   rms: 0.8421E-01   max: 0.4956E+00   T at   25  1
       a = 10.500      CL =  1.0555
      Cm =  0.0122     CD =  0.04149   =>   CDf =  0.00511    CDp =  0.03637

 Side 1  free  transition at x/c =  0.0231   24
 Side 2 forced transition at x/c =  1.0000   60

   2   rms: 0.5525E-01   max: 0.2920E+00   D at   25  1
       a = 10.500      CL =  1.0299
      Cm =  0.0114     CD =  0.04603   =>   CDf =  0.00430    CDp =  0.04173

 Side 1  free  transition at x/c =  0.0234   24
 Side 2 forced transition at x/c =  1.0000   60

   3   rms: 0.1983E-01   max: 0.8224E-01   D at   82  1
       a = 10.500      CL =  1.0331
      Cm =  0.0115     CD =  0.04573   =>   CDf =  0.00468    CDp =  0.04105

 Side 1  free  transition at x/c =  0.0233   24
 Side 2 forced transition at x/c =  1.0000   60

   4   rms: 0.1989E-02   max: -.9709E-02   D at   82  1
       a = 10.500      CL =  1.0327
      Cm =  0.0114     CD =  0.04563   =>   CDf =  0.00450    CDp =  0.04113

 Side 1  free  transition at x/c =  0.0233   24
 Side 2 forced transition at x/c =  1.0000   60

   5   rms: 0.2414E-04   max: -.8165E-04   D at   82  1
       a = 10.500      CL =  1.0327
      Cm =  0.0114     CD =  0.04564   =>   CDf =  0.00451    CDp =  0.04113
 Calculating wake trajectory ...
 Calculating source influence matrix ...

 Solving BL system ...

 Side 1  free  transition at x/c =  0.0233   24
 Side 2 forced transition at x/c =  1.0000   60

   1   rms: 0.1416E+00   max: 0.4031E+00   D at   69  1
       a = 11.000      CL =  1.0216
      Cm =  0.0101     CD =  0.05640   =>   CDf =  0.00452    CDp =  0.05188

 Side 1  free  transition at x/c =  0.0231   24
 Side 2 forced transition at x/c =  1.0000   60

   2   rms: 0.4255E-01   max: -.1279E+00   D at   42  1
       a = 11.000      CL =  1.0061
      Cm =  0.0072     CD =  0.05625   =>   CDf =  0.00353    CDp =  0.05273

 Side 1  free  transition at x/c =  0.0233   24
 Side 2 forced transition at x/c =  1.0000   60

   3   rms: 0.5514E-02   max: -.2831E-01   C at   60  2
       a = 11.000      CL =  1.0041
      Cm =  0.0072     CD =  0.05663   =>   CDf =  0.00372    CDp =  0.05291

 Side 1  free  transition at x/c =  0.0233   24
 Side 2 forced transition at x/c =  1.0000   60

   4   rms: 0.1623E-03   max: -.8864E-03   D at   71  2
       a = 11.000      CL =  1.0042
      Cm =  0.0072     CD =  0.05668   =>   CDf =  0.00374    CDp =  0.05293

 Side 1  free  transition at x/c =  0.0233   24
 Side 2 forced transition at x/c =  1.0000   60

   5   rms: 0.4944E-05   max: -.5673E-04   C at   60  2
       a = 11.000      CL =  1.0042
      Cm =  0.0072     CD =  0.05668   =>   CDf =  0.00374    CDp =  0.05293
 Calculating wake trajectory ...
 Calculating source influence matrix ...

 Solving BL system ...

 Side 1  free  transition at x/c =  0.0233   24
 Side 2 forced transition at x/c =  1.0000   60

   1   rms: 0.1508E+00   max: -.4549E+00   C at   60  2
       a = 11.500      CL =  0.9677
      Cm = -0.0039     CD =  0.07137   =>   CDf =  0.00375    CDp =  0.06762

 Side 1  free  transition at x/c =  0.0235   24
 Side 2 forced transition at x/c =  1.0000   60

   2   rms: 0.5440E-01   max: 0.2532E+00   D at   55  1
       a = 11.500      CL =  0.9678
      Cm = -0.0110     CD =  0.07562   =>   CDf =  0.00352    CDp =  0.07210

 Side 1  free  transition at x/c =  0.0237   25
 Side 2 forced transition at x/c =  1.0000   60

   3   rms: 0.2899E+00   max: 0.1210E+01   D at   55  1
       a = 11.500      CL =  1.0555
      Cm =  0.0114     CD =  0.06823   =>   CDf =  0.00416    CDp =  0.06408

 Side 1  free  transition at x/c =  0.0232   24
 Side 2 forced transition at x/c =  1.0000   60

   4   rms: 0.4882E+00   max: 0.1505E+01   D at   82  1   RLX: 0.997
       a = 11.500      CL =  1.0731
      Cm =  0.0000     CD =  0.07462   =>   CDf =  0.00460    CDp =  0.07002

 MRCHDU: Convergence failed at  47  side 1    Res =  0.1307E+02
 MRCHDU: Convergence failed at  48  side 1    Res =  0.5093E+01
 MRCHDU: Convergence failed at  49  side 1    Res =  0.4167E+01
 MRCHDU: Convergence failed at  50  side 1    Res =  0.4165E+01
 MRCHDU: Convergence failed at  51  side 1    Res =  0.4561E+01
 MRCHDU: Convergence failed at  52  side 1    Res =  0.5377E+01
 MRCHDU: Convergence failed at  53  side 1    Res =  0.7890E+01
 MRCHDU: Convergence failed at  54  side 1    Res =  0.3818E+02
 MRCHDU: Convergence failed at  55  side 1    Res =  0.9577E+01
 MRCHDU: Convergence failed at  56  side 1    Res =  0.4808E+01
 MRCHDU: Convergence failed at  57  side 1    Res =  0.1976E+01
 MRCHDU: Convergence failed at  58  side 1    Res =  0.2057E+01
 MRCHDU: Convergence failed at  59  side 1    Res =  0.2212E+01
 MRCHDU: Convergence failed at  60  side 1    Res =  0.2358E+01
 MRCHDU: Convergence failed at  61  side 1    Res =  0.2500E+01
 MRCHDU: Convergence failed at  62  side 1    Res =  0.2623E+01
 MRCHDU: Convergence failed at  63  side 1    Res =  0.2757E+01
 MRCHDU: Convergence failed at  64  side 1    Res =  0.2892E+01
 MRCHDU: Convergence failed at  65  side 1    Res =  0.3023E+01
 MRCHDU: Convergence failed at  66  side 1    Res =  0.3150E+01
 MRCHDU: Convergence failed at  67  side 1    Res =  0.3300E+01
[...]
 MRCHDU: Convergence failed at  82  side 1    Res =  0.8553E+02
 MRCHDU: Convergence failed at  83  side 1    Res =  0.9066E+02
 Side 1  free  transition at x/c =  0.0322   27
 Side 2 forced transition at x/c =  1.0000   59

  12   rms: 0.3492E+01   max: 0.3468E+02   T at   27  1   RLX: 0.023
       a = 12.000      CL =  5.5752
      Cm = -1.3595     CD =  0.00809   =>   CDf =  0.00170    CDp =  0.00639

 Side 1  free  transition at x/c =  0.0312   28
 Side 2 forced transition at x/c =  1.0000   58

  13   rms: 0.2740E+01   max: 0.2808E+02   T at   28  1   RLX: 0.049
       a = 12.000      CL =  4.7887
      Cm = -1.0828     CD =  0.09663   =>   CDf =  0.00237    CDp =  0.09425

 Side 1  free  transition at x/c =  0.0271   27
 Side 2 forced transition at x/c =  1.0000   58

  14   rms: 0.1719E+01   max: 0.1697E+02   T at   27  1   RLX: 0.069
       a = 12.000      CL =  4.7709
      Cm = -1.0760     CD =  0.11650   =>   CDf =  0.00247    CDp =  0.11403

 Side 1  free  transition at x/c =  0.0256   27
 Side 2 forced transition at x/c =  1.0000   58
 idif Ue xi dudx           1  0.12867974      7.26234913E-03   17.718748    
 Uenew xinew           2  2.70704590E-02  1.52778625E-03

  15   rms: 0.1504E+01   max: 0.8543E+01   C at   58  2   RLX: 0.134
       a = 12.000      CL =  4.2302
      Cm = -0.9376     CD =  0.13468   =>   CDf =  0.00300    CDp =  0.13168
 VISCAL:  Convergence failed
 Calculating wake trajectory ...
 Calculating source influence matrix ...

 Solving BL system ...

 Side 1  free  transition at x/c =  0.0234   25
 Side 2 forced transition at x/c =  1.0000   59

   1   rms: 0.1444E+01   max: 0.6523E+01   C at   59  2   RLX: 0.158
       a = 12.500      CL =  3.6672
      Cm = -0.7993     CD =  0.15916   =>   CDf =  0.00292    CDp =  0.15624

 Side 1  free  transition at x/c =  0.0236   26
 Side 2 forced transition at x/c =  1.0000   59
 idif Ue xi dudx           1  0.12825617      6.30164146E-03   20.352819    
 Uenew xinew           2  2.59486921E-02  1.27494335E-03

   2   rms: 0.1079E+01   max: 0.5592E+01   C at   59  2   RLX: 0.112
       a = 12.500      CL =  3.2754
      Cm = -0.6918     CD =  0.19875   =>   CDf =  0.00351    CDp =  0.19524

 Side 1  free  transition at x/c =  0.0240   25
 Side 2 forced transition at x/c =  1.0000   60

   3   rms: 0.1408E+01   max: 0.1095E+02   T at   25  1   RLX: 0.090
       a = 12.500      CL =  3.1281
      Cm = -0.6433     CD =  0.21582   =>   CDf =  0.00336    CDp =  0.21246

 MRCHDU: Convergence failed at  25  side 1    Res =  0.3447E+02
 MRCHDU: Convergence failed at  26  side 1    Res =  0.1509E+02
 Side 1  free  transition at x/c =  0.0228   24
 Side 2 forced transition at x/c =  1.0000   60

   4   rms: 0.1243E+01   max: 0.7293E+01   C at   60  2   RLX: 0.095
       a = 12.500      CL =  3.7096
      Cm = -0.7887     CD =  0.21698   =>   CDf =  0.00347    CDp =  0.21351

 Side 1  free  transition at x/c =  0.0234   24
 Side 2 forced transition at x/c =  1.0000   60

   5   rms: 0.1074E+01   max: 0.7093E+01   C at   60  2   RLX: 0.103
       a = 12.500      CL =  3.2718
      Cm = -0.6809     CD =  0.21265   =>   CDf =  0.00363    CDp =  0.20902

 MRCHDU: Convergence failed at  79  side 2    Res =  0.9799E-01
 Side 1  free  transition at x/c =  0.0235   24
 Side 2 forced transition at x/c =  1.0000   60

   6   rms: 0.9930E+00   max: 0.6649E+01   C at   60  2   RLX: 0.097
       a = 12.500      CL =  3.0009
      Cm = -0.6090     CD =  0.21490   =>   CDf =  0.00374    CDp =  0.21116

 MRCHDU: Convergence failed at  79  side 2    Res =  0.2935E+00
 Side 1  free  transition at x/c =  0.0237   25
 Side 2 forced transition at x/c =  1.0000   60

   7   rms: 0.2744E+01   max: 0.1564E+02   T at   25  1   RLX: 0.065
       a = 12.500      CL =  2.7663
      Cm = -0.5369     CD =  0.59362   =>   CDf =  0.00380    CDp =  0.58982

 MRCHDU: Convergence failed at  25  side 1    Res =  0.3692E+01
 MRCHDU: Convergence failed at  26  side 1    Res =  0.1661E+02
 MRCHDU: Convergence failed at  27  side 1    Res =  0.1170E+03
 MRCHDU: Convergence failed at  28  side 1    Res =  0.5753E+01
 MRCHDU: Convergence failed at  29  side 1    Res =  0.7435E+01
 MRCHDU: Convergence failed at  30  side 1    Res =  0.1148E+02
 MRCHDU: Convergence failed at  31  side 1    Res =  0.2199E+02
 MRCHDU: Convergence failed at  32  side 1    Res =  0.1676E+02
 MRCHDU: Convergence failed at  33  side 1    Res =  0.3735E+01
 MRCHDU: Convergence failed at  34  side 1    Res =  0.5015E+01
 MRCHDU: Convergence failed at  35  side 1    Res =  0.9472E+01
 MRCHDU: Convergence failed at  36  side 1    Res =  0.1662E+02
 MRCHDU: Convergence failed at  37  side 1    Res =  0.3990E+01
 MRCHDU: Convergence failed at  38  side 1    Res =  0.2704E+01
 MRCHDU: Convergence failed at  39  side 1    Res =  0.3583E+01
 MRCHDU: Convergence failed at  40  side 1    Res =  0.4802E+01
 MRCHDU: Convergence failed at  41  side 1    Res =  0.6657E+01
 MRCHDU: Convergence failed at  42  side 1    Res =  0.1053E+02
 MRCHDU: Convergence failed at  43  side 1    Res =  0.2954E+02
 MRCHDU: Convergence failed at  44  side 1    Res =  0.3959E+02
 MRCHDU: Convergence failed at  45  side 1    Res =  0.1172E+02
 MRCHDU: Convergence failed at  46  side 1    Res =  0.6837E+01
 MRCHDU: Convergence failed at  47  side 1    Res =  0.4787E+01
 MRCHDU: Convergence failed at  48  side 1    Res =  0.3680E+01
 MRCHDU: Convergence failed at  49  side 1    Res =  0.4213E+01
 MRCHDU: Convergence failed at  50  side 1    Res =  0.5185E+01
 MRCHDU: Convergence failed at  51  side 1    Res =  0.6103E+01
 MRCHDU: Convergence failed at  52  side 1    Res =  0.7835E+01
 MRCHDU: Convergence failed at  53  side 1    Res =  0.1159E+02
 MRCHDU: Convergence failed at  54  side 1    Res =  0.2722E+02
 MRCHDU: Convergence failed at  55  side 1    Res =  0.3943E+02
 MRCHDU: Convergence failed at  56  side 1    Res =  0.1009E+02
 MRCHDU: Convergence failed at  57  side 1    Res =  0.4753E+01
 MRCHDU: Convergence failed at  58  side 1    Res =  0.2794E+01
 MRCHDU: Convergence failed at  59  side 1    Res =  0.2058E+01
 MRCHDU: Convergence failed at  60  side 1    Res =  0.2021E+01
 MRCHDU: Convergence failed at  61  side 1    Res =  0.1903E+01
 MRCHDU: Convergence failed at  62  side 1    Res =  0.2577E+01
 MRCHDU: Convergence failed at  63  side 1    Res =  0.1856E+01
 Side 1  free  transition at x/c =  0.0255   25
 Side 2 forced transition at x/c =  1.0000   60

   8   rms: 0.2336E+01   max: 0.1475E+02   D at   64  1   RLX: 0.102
       a = 12.500      CL =  4.4728
      Cm = -0.9665     CD =  0.44709   =>   CDf =  0.00288    CDp =  0.44422

 MRCHDU: Convergence failed at  30  side 1    Res =  0.3020E+00
 MRCHDU: Convergence failed at  31  side 1    Res =  0.2893E+00
 MRCHDU: Convergence failed at  32  side 1    Res =  0.2763E+00
 MRCHDU: Convergence failed at  33  side 1    Res =  0.2606E+00
 MRCHDU: Convergence failed at  34  side 1    Res =  0.2495E+00
 MRCHDU: Convergence failed at  35  side 1    Res =  0.2343E+00
 MRCHDU: Convergence failed at  36  side 1    Res =  0.2172E+00
 MRCHDU: Convergence failed at  37  side 1    Res =  0.1957E+00
 MRCHDU: Convergence failed at  38  side 1    Res =  0.1398E+00
 MRCHDU: Convergence failed at  40  side 1    Res =  0.3402E+00
 MRCHDU: Convergence failed at  41  side 1    Res =  0.3284E+00
 MRCHDU: Convergence failed at  42  side 1    Res =  0.3155E+00
 MRCHDU: Convergence failed at  43  side 1    Res =  0.3006E+00
 MRCHDU: Convergence failed at  44  side 1    Res =  0.2834E+00
 MRCHDU: Convergence failed at  45  side 1    Res =  0.2624E+00
 MRCHDU: Convergence failed at  46  side 1    Res =  0.2371E+00
 MRCHDU: Convergence failed at  47  side 1    Res =  0.1998E+00
 Side 1  free  transition at x/c =  0.0271   25
 Side 2 forced transition at x/c =  1.0000   60

   9   rms: 0.2082E+01   max: 0.1247E+02   T at   25  1   RLX: 0.098
       a = 12.500      CL =  3.3544
      Cm = -0.6570     CD =  0.42529   =>   CDf =  0.00500    CDp =  0.42029

 MRCHDU: Convergence failed at  48  side 1    Res =  0.3245E+00
 MRCHDU: Convergence failed at  49  side 1    Res =  0.9355E+00
 MRCHDU: Convergence failed at  50  side 1    Res =  0.2204E+00
 MRCHDU: Convergence failed at  51  side 1    Res =  0.6028E-01
 MRCHDU: Convergence failed at  52  side 1    Res =  0.5426E-03
 Side 1  free  transition at x/c =  0.0245   25
 Side 2 forced transition at x/c =  1.0000   60

  10   rms: 0.1777E+01   max: 0.1054E+02   T at   25  1   RLX: 0.085
       a = 12.500      CL =  2.6773
      Cm = -0.5173     CD =  0.46304   =>   CDf =  0.00429    CDp =  0.45875

 MRCHDU: Convergence failed at  25  side 1    Res =  0.6049E+01
 MRCHDU: Convergence failed at  51  side 1    Res =  0.1016E+00
 MRCHDU: Convergence failed at  52  side 1    Res =  0.5042E+00
 Side 1  free  transition at x/c =  0.0249   25
 Side 2 forced transition at x/c =  1.0000   60
 idif Ue xi dudx           1  0.11954842      5.06103039E-03   23.621359    
 Uenew xinew           2  1.45468637E-02  6.15835190E-04

  11   rms: 0.1231E+01   max: 0.4250E+01   C at   60  2   RLX: 0.224
       a = 12.500      CL =  2.0525
      Cm = -0.3153     CD =  0.43032   =>   CDf =  0.00378    CDp =  0.42654

 Side 1  free  transition at x/c =  0.0272   24
 Side 2 forced transition at x/c =  1.0000   61

  12   rms: 0.8423E+00   max: 0.3439E+01   C at   61  2   RLX: 0.324
       a = 12.500      CL =  1.5024
      Cm = -0.2098     CD =  0.35166   =>   CDf =  0.00345    CDp =  0.34821

 Side 1  free  transition at x/c =  0.0286   25
 Side 2 forced transition at x/c =  1.0000   61
 idif Ue xi dudx           1  0.18750677      7.08329678E-03   26.471680    
 Uenew xinew           2  8.25807303E-02  3.11958790E-03

  13   rms: 0.1487E+01   max: 0.3316E+01   D at   25  1   RLX: 0.158
       a = 12.500      CL =  1.1961
      Cm = -0.1572     CD =  0.41926   =>   CDf =  0.00362    CDp =  0.41565

 Side 1  free  transition at x/c =  0.0328   24
 Side 2 forced transition at x/c =  1.0000   62
 idif Ue xi dudx           1  0.14368068      4.85146046E-03   29.615963    
 Uenew xinew           2  3.81470285E-02  1.28805637E-03

  14   rms: 0.3869E+00   max: 0.1745E+01   C at   62  2   RLX: 0.703
       a = 12.500      CL =  0.6777
      Cm = -0.0451     CD =  0.15737   =>   CDf =  0.00357    CDp =  0.15380

 Side 1  free  transition at x/c =  0.0347   24
 Side 2 forced transition at x/c =  1.0000   63

  15   rms: 0.2131E+00   max: 0.1052E+01   T at   24  1   RLX: 0.683
       a = 12.500      CL =  0.6015
      Cm = -0.0119     CD =  0.13627   =>   CDf =  0.00310    CDp =  0.13317
 VISCAL:  Convergence failed
 Calculating wake trajectory ...
 Calculating source influence matrix ...

 Solving BL system ...

 Side 1  free  transition at x/c =  0.0328   24
 Side 2 forced transition at x/c =  1.0000   62
 idif Ue xi dudx           1  0.12787138      4.21512127E-03   30.336346    
 Uenew xinew           2  1.97707172E-02  6.51717186E-04

   1   rms: 0.1930E+01   max: -.1069E+02   T at   24  1   RLX: 0.047
       a = 13.000      CL =  0.5627
      Cm = -0.0061     CD =  0.14336   =>   CDf =  0.00331    CDp =  0.14005

 Side 1  free  transition at x/c =  0.0342   24
 Side 2 forced transition at x/c =  1.0000   63

   2   rms: 0.9373E+00   max: 0.5296E+01   T at   24  1   RLX: 0.177
       a = 13.000      CL =  0.5465
      Cm =  0.0113     CD =  0.12005   =>   CDf =  0.00301    CDp =  0.11704

 MRCHDU: Convergence failed at  25  side 1    Res =  0.3879E+03
 MRCHDU: Convergence failed at  26  side 1    Res =  0.2291E+02
 MRCHDU: Convergence failed at  27  side 1    Res =  0.2455E+02
 MRCHDU: Convergence failed at  28  side 1    Res =  0.6844E+03
 MRCHDU: Convergence failed at  29  side 1    Res =  0.5077E+02
 MRCHDU: Convergence failed at  30  side 1    Res =  0.1278E+03
 MRCHDU: Convergence failed at  31  side 1    Res =  0.3859E+03
 MRCHDU: Convergence failed at  32  side 1    Res =  0.4117E+03
 MRCHDU: Convergence failed at  33  side 1    Res =  0.3789E+02
 MRCHDU: Convergence failed at  34  side 1    Res =  0.5075E+02
 MRCHDU: Convergence failed at  35  side 1    Res =  0.7563E+04
 MRCHDU: Convergence failed at  36  side 1    Res =  0.5941E+03
 MRCHDU: Convergence failed at  37  side 1    Res =  0.7327E+02
 MRCHDU: Convergence failed at  38  side 1    Res =  0.7929E+02
 MRCHDU: Convergence failed at  39  side 1    Res =  0.1277E+03
 MRCHDU: Convergence failed at  40  side 1    Res =  0.6382E+03
 MRCHDU: Convergence failed at  41  side 1    Res =  0.1842E+03
 MRCHDU: Convergence failed at  42  side 1    Res =  0.1155E+03
 MRCHDU: Convergence failed at  43  side 1    Res =  0.8986E+02
 MRCHDU: Convergence failed at  44  side 1    Res =  0.7446E+02
 MRCHDU: Convergence failed at  45  side 1    Res =  0.1145E+03
 MRCHDU: Convergence failed at  46  side 1    Res =  0.6830E+02
 MRCHDU: Convergence failed at  47  side 1    Res =  0.4569E+02
 MRCHDU: Convergence failed at  48  side 1    Res =  0.4681E+02
 MRCHDU: Convergence failed at  49  side 1    Res =  0.3421E+02
 MRCHDU: Convergence failed at  50  side 1    Res =  0.3645E+02
 MRCHDU: Convergence failed at  51  side 1    Res =  0.3133E+04
 MRCHDU: Convergence failed at  52  side 1    Res =  0.5662E+04
 MRCHDU: Convergence failed at  53  side 1    Res =  0.1597E+05
 MRCHDU: Convergence failed at  54  side 1    Res =  0.2193E+04
 MRCHDU: Convergence failed at  55  side 1    Res =  0.6433E+02
 MRCHDU: Convergence failed at  56  side 1    Res =  0.6848E+02
 MRCHDU: Convergence failed at  57  side 1    Res =  0.5005E+02
 MRCHDU: Convergence failed at  58  side 1    Res =  0.5229E+02
 MRCHDU: Convergence failed at  59  side 1    Res =  0.5457E+02
 MRCHDU: Convergence failed at  60  side 1    Res =  0.5689E+02
 MRCHDU: Convergence failed at  61  side 1    Res =  0.5927E+02
 MRCHDU: Convergence failed at  62  side 1    Res =  0.5904E+02
 MRCHDU: Convergence failed at  63  side 1    Res =  0.2562E+03
 MRCHDU: Convergence failed at  64  side 1    Res =  0.1325E+03
 MRCHDU: Convergence failed at  65  side 1    Res =  0.4863E+03
 MRCHDU: Convergence failed at  66  side 1    Res =  0.2722E+03
 MRCHDU: Convergence failed at  67  side 1    Res =  0.2097E+03
 MRCHDU: Convergence failed at  68  side 1    Res =  0.6133E+03
 MRCHDU: Convergence failed at  69  side 1    Res =  0.1229E+03
 MRCHDU: Convergence failed at  70  side 1    Res =  0.1074E+03
 MRCHDU: Convergence failed at  71  side 1    Res =  0.9962E+02
 MRCHDU: Convergence failed at  72  side 1    Res =  0.9324E+02
 MRCHDU: Convergence failed at  73  side 1    Res =  0.8796E+02
 MRCHDU: Convergence failed at  74  side 1    Res =  0.8352E+02
 MRCHDU: Convergence failed at  75  side 1    Res =  0.7966E+02
 MRCHDU: Convergence failed at  76  side 1    Res =  0.7576E+02
 MRCHDU: Convergence failed at  77  side 1    Res =  0.7119E+02
 MRCHDU: Convergence failed at  78  side 1    Res =  0.6643E+02
 MRCHDU: Convergence failed at  79  side 1    Res =  0.6666E+02
 MRCHDU: Convergence failed at  80  side 1    Res =  0.6198E+02
 MRCHDU: Convergence failed at  76  side 2    Res =  0.1994E-03
 Side 1  free  transition at x/c =  0.0313   24
 Side 2 forced transition at x/c =  1.0000   62

   3   rms: 0.1899E+01   max: 0.6694E+01   D at   76  2   RLX: 0.224
       a = 13.000      CL =  2.0548
      Cm = -0.4599     CD =  0.03545   =>   CDf =  0.00267    CDp =  0.03278

 MRCHDU: Convergence failed at  76  side 2    Res =  0.3661E+01
 Side 1  free  transition at x/c =  0.0335   24
 Side 2 forced transition at x/c =  1.0000   62
 idif Ue xi dudx           1  0.11542763      3.74841690E-03   30.793701    
 Uenew xinew           2  5.69722941E-03  1.85012817E-04

   4   rms: 0.7161E+00   max: 0.4459E+01   C at   62  2   RLX: 0.141
       a = 13.000      CL =  1.3599
      Cm = -0.2545     CD =  0.12497   =>   CDf =  0.00332    CDp =  0.12165

 Side 1  free  transition at x/c =  0.0337   23
 Side 2 forced transition at x/c =  1.0000   63

   5   rms: 0.6125E+00   max: 0.4143E+01   C at   63  2   RLX: 0.361
       a = 13.000      CL =  0.9721
      Cm = -0.1544     CD =  0.10541   =>   CDf =  0.00321    CDp =  0.10220

 Side 1  free  transition at x/c =  0.0349   24
 Side 2 forced transition at x/c =  1.0000   63
 idif Ue xi dudx           1  0.11035499      3.42559814E-03   32.214809    
 Uenew xinew           2  6.28657872E-03  1.95145607E-04

   6   rms: 0.5628E+00   max: 0.2346E+01   D at   24  1   RLX: 0.257
       a = 13.000      CL =  0.7663
      Cm = -0.1017     CD =  0.16546   =>   CDf =  0.00336    CDp =  0.16210

 Side 1  free  transition at x/c =  0.0409   24
 Side 2 forced transition at x/c =  1.0000   64

   7   rms: 0.3345E+00   max: 0.2041E+01   C at   64  2   RLX: 0.640
       a = 13.000      CL =  0.5861
      Cm = -0.0425     CD =  0.11172   =>   CDf =  0.00313    CDp =  0.10859

 Side 1  free  transition at x/c =  0.0385   24
 Side 2 forced transition at x/c =  1.0000   63

   8   rms: 0.6358E+00   max: -.1009E+02   T at   24  1   RLX: 0.050
       a = 13.000      CL =  0.5598
      Cm = -0.0265     CD =  0.17479   =>   CDf =  0.00321    CDp =  0.17158

 Side 1  free  transition at x/c =  0.0393   24
 Side 2 forced transition at x/c =  1.0000   63
 idif Ue xi dudx           1  0.10964734      3.32677364E-03   32.959064    
 Uenew xinew           2  3.17465351E-03  9.63211060E-05

   9   rms: 0.2369E+00   max: 0.1332E+01   D at   25  1   RLX: 0.669
       a = 13.000      CL =  0.5435
      Cm = -0.0306     CD =  0.15160   =>   CDf =  0.00333    CDp =  0.14827

 Side 1  free  transition at x/c =  0.0388   23
 Side 2 forced transition at x/c =  1.0000   64

  10   rms: 0.1255E+00   max: 0.7665E+00   D at   24  1   RLX: 0.976
       a = 13.000      CL =  0.5430
      Cm = -0.0303     CD =  0.14671   =>   CDf =  0.00319    CDp =  0.14352

 Side 1  free  transition at x/c =  0.0926   29
 Side 2 forced transition at x/c =  1.0000   64

  11   rms: 0.9242E+00   max: 0.1277E+02   T at   29  1   RLX: 0.117
       a = 13.000      CL =  0.5158
      Cm = -0.0012     CD =  0.13002   =>   CDf =  0.00296    CDp =  0.12706

 Side 1  free  transition at x/c =  0.0765   28
 Side 2 forced transition at x/c =  1.0000   63

  12   rms: 0.1663E+02   max: 0.9150E+02   T at   29  1   RLX: 0.013
       a = 13.000      CL =  0.6718
      Cm = -0.0078     CD =  0.10202   =>   CDf =  0.00295    CDp =  0.09906

 Side 1  free  transition at x/c =  0.0712   29
 Side 2 forced transition at x/c =  1.0000   62
 idif Ue xi dudx           1  0.13219270      4.32062149E-03   30.595760    
 Uenew xinew           2  2.31676418E-02  7.57217407E-04

  13   rms: 0.5585E+01   max: 0.2485E+02   D at   39  1   RLX: 0.060
       a = 13.000      CL =  0.6026
      Cm =  0.0129     CD =  0.09961   =>   CDf =  0.00452    CDp =  0.09509

 Side 1  free  transition at x/c =  0.0568   27
 Side 2 forced transition at x/c =  1.0000   63

  14   rms: 0.4800E+01   max: 0.3575E+02   T at   27  1   RLX: 0.042
       a = 13.000      CL =  0.7008
      Cm =  0.0086     CD =  0.09260   =>   CDf =  0.00304    CDp =  0.08956

 MRCHDU: Convergence failed at  76  side 2    Res =  0.1169E-03
 Side 1  free  transition at x/c =  0.0573   28
 Side 2 forced transition at x/c =  1.0000   62

  15   rms: 0.1505E+01   max: 0.1151E+02   T at   28  1   RLX: 0.130
       a = 13.000      CL =  0.7836
      Cm =  0.0134     CD =  0.05132   =>   CDf =  0.00573    CDp =  0.04560
 VISCAL:  Convergence failed

 Sequence halted since previous  4 points did not converge
 Last-converged  alpha =  11.000    CL =   1.00417

.OPERva   c>  
 Polar accumulation disabled

.OPERv   c>  
        airfoil                    Re           Mach       Ncrit  XtripT  XtripB     file
       ------------------------  ------------  ----------  -----  ------  ------    -------------------
    1  HT 14                     2.430e5       0.000        9.00   1.000   1.000    

Enter polar output filename   s>  
 Output file exists.  Overwrite?  Y

.OPERv   c>  
 XFOIL   c>  
 XFOIL   c>  