
 ===================================================
  XFOIL Version 6.99
  Copyright (C) 2000   Mark Drela, Harold Youngren

  This software comes with ABSOLUTELY NO WARRANTY,
    subject to the GNU General Public License.

  Caveat computor
 ===================================================

 File  xfoil.def  not found

   QUIT    Exit program

  .OPER    Direct operating point(s)
  .MDES    Complex mapping design routine
  .QDES    Surface speed design routine
  .GDES    Geometry design routine

   SAVE f  Write airfoil to labeled coordinate file
   PSAV f  Write airfoil to plain coordinate file
   ISAV f  Write airfoil to ISES coordinate file
   MSAV f  Write airfoil to MSES coordinate file
   REVE    Reverse written-airfoil node ordering

   LOAD f  Read buffer airfoil from coordinate file
   NACA i  Set NACA 4,5-digit airfoil and buffer airfoil
   INTE    Set buffer airfoil by interpolating two airfoils
   NORM    Buffer airfoil normalization toggle
   XYCM rr Change CM reference location, currently  0.25000 0.00000

   BEND    Display structural properties of current airfoil

   PCOP    Set current-airfoil panel nodes directly from buffer airfoil points
   PANE    Set current-airfoil panel nodes ( 160 ) based on curvature
  .PPAR    Show/change paneling

  .PLOP    Plotting options

   WDEF f  Write  current-settings file
   RDEF f  Reread current-settings file
   NAME s  Specify new airfoil name
   NINC    Increment name version number

   Z       Zoom    | (available in all menus)
   U       Unzoom  | 

 XFOIL   c>  
 Labeled airfoil file.  Name:  HT 14                                           

 Number of input coordinate points: 142
 Counterclockwise ordering
 Max thickness =     0.074919  at x =   0.190
 Max camber    =     0.013896  at x =   0.799

  LE  x,y  =   0.00000   0.00028  |   Chord =   0.99941
  TE  x,y  =   0.99926  -0.01743  |

 Current airfoil nodes set from buffer airfoil nodes ( 142 )

 XFOIL   c>  
.OPERi   c>  
Enter Reynolds number   r>  
 M  =    0.0000
 Re =    243000

.OPERv   c>   Calculating unit vorticity distributions ...
 Calculating wake trajectory ...
 Calculating source influence matrix ...

 Solving BL system ...

 Initializing BL ...
    side            1  ...
 MRCHUE: Inverse mode at  62     Hk =   3.800
 MRCHUE: Inverse mode at  63     Hk =   4.245
 MRCHUE: Inverse mode at  64     Hk =   2.844
 MRCHUE: Inverse mode at  65     Hk =   2.500
 MRCHUE: Inverse mode at  66     Hk =   2.500
    side            2  ...
 MRCHUE: Inverse mode at  50     Hk =   3.869
 MRCHUE: Inverse mode at  51     Hk =   4.297
 MRCHUE: Inverse mode at  52     Hk =   4.717
 MRCHUE: Inverse mode at  53     Hk =   5.130
 MRCHUE: Inverse mode at  54     Hk =   5.537
 MRCHUE: Inverse mode at  55     Hk =   5.938
 MRCHUE: Inverse mode at  56     Hk =   6.335
 MRCHUE: Inverse mode at  57     Hk =   6.624
 MRCHUE: Inverse mode at  58     Hk =   6.767
 MRCHUE: Inverse mode at  59     Hk =   6.877
 MRCHUE: Inverse mode at  60     Hk =   7.097
 MRCHUE: Inverse mode at  61     Hk =   7.483
 MRCHUE: Inverse mode at  62     Hk =   5.757
 MRCHUE: Inverse mode at  63     Hk =   4.397
 MRCHUE: Inverse mode at  64     Hk =   3.377

 Side 1  free  transition at x/c =  0.8439   64
 Side 2  free  transition at x/c =  0.8379   62

   1   rms: 0.3294E+00   max: -.3401E+01   C at   64  1   RLX: 0.147
       a =  0.000      CL =  0.3043
      Cm = -0.0549     CD =  0.00822   =>   CDf =  0.00476    CDp =  0.00346

 Side 1  free  transition at x/c =  0.8573   65
 Side 2  free  transition at x/c =  0.8428   62

   2   rms: 0.1564E+00   max: -.1253E+01   C at   65  1   RLX: 0.399
       a =  0.000      CL =  0.2961
      Cm = -0.0524     CD =  0.00791   =>   CDf =  0.00469    CDp =  0.00322

 Side 1  free  transition at x/c =  0.8829   66
 Side 2  free  transition at x/c =  0.8591   63

   3   rms: 0.1419E+00   max: 0.1365E+01   C at   66  1   RLX: 0.641
       a =  0.000      CL =  0.3019
      Cm = -0.0511     CD =  0.00766   =>   CDf =  0.00459    CDp =  0.00307

 MRCHDU: Convergence failed at  67  side 1    Res =  0.1784E+01
 MRCHDU: Convergence failed at  68  side 1    Res =  0.5561E+01
 MRCHDU: Convergence failed at  69  side 1    Res =  0.7605E+01
 MRCHDU: Convergence failed at  70  side 1    Res =  0.4423E+01
 MRCHDU: Convergence failed at  71  side 1    Res =  0.4122E+01
 MRCHDU: Convergence failed at  72  side 1    Res =  0.4376E+01
 MRCHDU: Convergence failed at  73  side 1    Res =  0.5685E+02
 Side 1 forced transition at x/c =  1.0001   73
 Side 2  free  transition at x/c =  0.8836   64
 idif Ue xi dudx           1  0.24437129      2.10618973E-03   116.02530    
 Uenew xinew           2  4.28770110E-03  3.69548798E-05

   4   rms: 0.1545E+00   max: 0.1117E+01   C at   73  1   RLX: 0.594
       a =  0.000      CL =  0.2814
      Cm = -0.0528     CD =  0.00592   =>   CDf =  0.00457    CDp =  0.00135

 Side 1  free  transition at x/c =  0.9612   69
 Side 2  free  transition at x/c =  0.9179   67

   5   rms: 0.1236E+00   max: -.1898E+01   C at   67  2   RLX: 0.263
       a =  0.000      CL =  0.2870
      Cm = -0.0536     CD =  0.00683   =>   CDf =  0.00418    CDp =  0.00265

 Side 1  free  transition at x/c =  0.9504   70
 Side 2  free  transition at x/c =  0.9312   66

   6   rms: 0.1590E+00   max: -.2010E+01   C at   66  2   RLX: 0.249
       a =  0.000      CL =  0.2971
      Cm = -0.0547     CD =  0.00700   =>   CDf =  0.00421    CDp =  0.00279

 Side 1  free  transition at x/c =  0.9447   69
 Side 2  free  transition at x/c =  0.9381   67

   7   rms: 0.1794E+00   max: -.2624E+01   C at   67  2   RLX: 0.191
       a =  0.000      CL =  0.2989
      Cm = -0.0549     CD =  0.00693   =>   CDf =  0.00419    CDp =  0.00274

 Side 1  free  transition at x/c =  0.9406   69
 Side 2  free  transition at x/c =  0.9531   68

   8   rms: 0.3000E+00   max: -.4323E+01   C at   68  2   RLX: 0.116
       a =  0.000      CL =  0.3004
      Cm = -0.0550     CD =  0.00697   =>   CDf =  0.00418    CDp =  0.00279

 Side 1  free  transition at x/c =  0.9386   69
 Side 2  free  transition at x/c =  0.9644   68

   9   rms: 0.4445E+00   max: -.6156E+01   C at   68  2   RLX: 0.081
       a =  0.000      CL =  0.3010
      Cm = -0.0549     CD =  0.00699   =>   CDf =  0.00417    CDp =  0.00282

 Side 1  free  transition at x/c =  0.9373   69
 Side 2  free  transition at x/c =  0.9817   70

  10   rms: 0.6179E+00   max: -.1117E+02   C at   70  2   RLX: 0.045
       a =  0.000      CL =  0.3011
      Cm = -0.0549     CD =  0.00699   =>   CDf =  0.00417    CDp =  0.00283
 VISCAL:  Convergence failed
 Type "!" to continue iterating

.OPERv   c>  
.OPERv   c>  
Enter flap hinge x location   r>  
  Top    surface:  y =  0.0160     y/t = 1.0
  Bottom surface:  y = -0.0160     y/t = 0.0

Enter flap hinge y location (or 999 to specify y/t)   r>  
 Flap hinge x,y :  0.7000  0.0000
                                           2  2
 Hinge moment/span = 0.010613  x  1/2 rho V  c 
                                           2   
 x-Force     /span = 0.003519  x  1/2 rho V  c 
                                           2   
 y-Force     /span = 0.085355  x  1/2 rho V  c 


.OPERv   c>   Calculating wake trajectory ...
 Calculating source influence matrix ...

 Solving BL system ...

 Side 1  free  transition at x/c =  0.9368   69
 Side 2 forced transition at x/c =  0.9999   71

   1   rms: 0.3518E+00   max: -.1613E+01   D at   72  1   RLX: 0.310
       a =  1.000      CL =  0.3669
      Cm = -0.0597     CD =  0.00673   =>   CDf =  0.00417    CDp =  0.00255

 Side 1  free  transition at x/c =  0.8047   62
 Side 2 forced transition at x/c =  0.9999   71

   2   rms: 0.3887E+01   max: -.5032E+02   C at   62  1   RLX: 0.010
       a =  1.000      CL =  0.3627
      Cm = -0.0588     CD =  0.00669   =>   CDf =  0.00422    CDp =  0.00246

 Side 1  free  transition at x/c =  0.7873   61
 Side 2 forced transition at x/c =  0.9999   71

   3   rms: 0.2909E+01   max: 0.4018E+02   C at   61  1   RLX: 0.037
       a =  1.000      CL =  0.3626
      Cm = -0.0554     CD =  0.00672   =>   CDf =  0.00428    CDp =  0.00244

 Side 1  free  transition at x/c =  0.7382   58
 Side 2 forced transition at x/c =  0.9999   71

   4   rms: 0.1173E+01   max: 0.1779E+02   C at   58  1   RLX: 0.084
       a =  1.000      CL =  0.3629
      Cm = -0.0538     CD =  0.00693   =>   CDf =  0.00457    CDp =  0.00236

 Side 1  free  transition at x/c =  0.6864   56
 Side 2 forced transition at x/c =  0.9999   71

   5   rms: 0.5796E+00   max: 0.9664E+01   C at   56  1   RLX: 0.155
       a =  1.000      CL =  0.3647
      Cm = -0.0518     CD =  0.00745   =>   CDf =  0.00487    CDp =  0.00258

 Side 1  free  transition at x/c =  0.6251   53
 Side 2 forced transition at x/c =  0.9999   71

   6   rms: 0.2942E+00   max: 0.4853E+01   C at   53  1   RLX: 0.309
       a =  1.000      CL =  0.3710
      Cm = -0.0494     CD =  0.00806   =>   CDf =  0.00521    CDp =  0.00285

 Side 1  free  transition at x/c =  0.5538   49
 Side 2 forced transition at x/c =  0.9999   71

   7   rms: 0.1307E+00   max: 0.1969E+01   C at   49  1   RLX: 0.762
       a =  1.000      CL =  0.3880
      Cm = -0.0469     CD =  0.00872   =>   CDf =  0.00555    CDp =  0.00317

 Side 1  free  transition at x/c =  0.4666   45
 Side 2 forced transition at x/c =  0.9999   70

   8   rms: 0.2500E-01   max: -.1775E+00   D at   46  1
       a =  1.000      CL =  0.3952
      Cm = -0.0466     CD =  0.00881   =>   CDf =  0.00605    CDp =  0.00277

 Side 1  free  transition at x/c =  0.4447   44
 Side 2 forced transition at x/c =  0.9999   70

   9   rms: 0.3747E-02   max: -.5756E-01   C at   44  1
       a =  1.000      CL =  0.3948
      Cm = -0.0465     CD =  0.00889   =>   CDf =  0.00613    CDp =  0.00276

 Side 1  free  transition at x/c =  0.4464   44
 Side 2 forced transition at x/c =  0.9999   70

  10   rms: 0.7798E-04   max: -.1221E-02   D at   47  1
       a =  1.000      CL =  0.3948
      Cm = -0.0465     CD =  0.00889   =>   CDf =  0.00612    CDp =  0.00277

.OPERv   c>  
.OPERv   c>  
Enter flap hinge x location   r>  
  Top    surface:  y =  0.0160     y/t = 1.0
  Bottom surface:  y = -0.0160     y/t = 0.0

Enter flap hinge y location (or 999 to specify y/t)   r>  
 Flap hinge x,y :  0.7000  0.0000
                                           2  2
 Hinge moment/span = 0.008985  x  1/2 rho V  c 
                                           2   
 x-Force     /span = 0.002596  x  1/2 rho V  c 
                                           2   
 y-Force     /span = 0.083434  x  1/2 rho V  c 


.OPERv   c>   Calculating wake trajectory ...
 Calculating source influence matrix ...

 Solving BL system ...

 Side 1  free  transition at x/c =  0.4464   44
 Side 2 forced transition at x/c =  0.9999   70

   1   rms: 0.3197E+00   max: 0.4653E+01   C at   44  1   RLX: 0.322
       a =  2.000      CL =  0.4291
      Cm = -0.0461     CD =  0.00944   =>   CDf =  0.00612    CDp =  0.00332

 Side 1  free  transition at x/c =  0.3647   40
 Side 2 forced transition at x/c =  0.9999   70

   2   rms: 0.1539E+00   max: 0.8777E+00   C at   40  1   RLX: 0.588
       a =  2.000      CL =  0.4725
      Cm = -0.0457     CD =  0.01006   =>   CDf =  0.00656    CDp =  0.00350

 Side 1  free  transition at x/c =  0.2914   36
 Side 2 forced transition at x/c =  0.9999   70

   3   rms: 0.7574E-01   max: -.7574E+00   D at   37  1   RLX: 0.660
       a =  2.000      CL =  0.4927
      Cm = -0.0455     CD =  0.01025   =>   CDf =  0.00685    CDp =  0.00340

 Side 1  free  transition at x/c =  0.2606   35
 Side 2 forced transition at x/c =  0.9999   69

   4   rms: 0.3690E-01   max: -.3411E+00   D at   36  1
       a =  2.000      CL =  0.5025
      Cm = -0.0455     CD =  0.01048   =>   CDf =  0.00705    CDp =  0.00343

 Side 1  free  transition at x/c =  0.2410   34
 Side 2 forced transition at x/c =  0.9999   69

   5   rms: 0.4739E-02   max: -.6256E-01   C at   34  1
       a =  2.000      CL =  0.5014
      Cm = -0.0455     CD =  0.01073   =>   CDf =  0.00719    CDp =  0.00354

 Side 1  free  transition at x/c =  0.2413   34
 Side 2 forced transition at x/c =  0.9999   69

   6   rms: 0.1191E-03   max: 0.1759E-02   C at   34  1
       a =  2.000      CL =  0.5014
      Cm = -0.0455     CD =  0.01073   =>   CDf =  0.00717    CDp =  0.00356

 Side 1  free  transition at x/c =  0.2412   34
 Side 2 forced transition at x/c =  0.9999   69

   7   rms: 0.9837E-06   max: 0.5601E-05   D at    4  1
       a =  2.000      CL =  0.5014
      Cm = -0.0455     CD =  0.01073   =>   CDf =  0.00717    CDp =  0.00356

.OPERv   c>  
.OPERv   c>  
Enter flap hinge x location   r>  
  Top    surface:  y =  0.0160     y/t = 1.0
  Bottom surface:  y = -0.0160     y/t = 0.0

Enter flap hinge y location (or 999 to specify y/t)   r>  
 Flap hinge x,y :  0.7000  0.0000
                                           2  2
 Hinge moment/span = 0.009668  x  1/2 rho V  c 
                                           2   
 x-Force     /span = 0.002727  x  1/2 rho V  c 
                                           2   
 y-Force     /span = 0.091386  x  1/2 rho V  c 


.OPERv   c>   Calculating wake trajectory ...
 Calculating source influence matrix ...

 Solving BL system ...

 Side 1  free  transition at x/c =  0.2412   34
 Side 2 forced transition at x/c =  0.9999   69

   1   rms: 0.2068E+00   max: 0.1222E+01   T at   34  1   RLX: 0.656
       a =  3.000      CL =  0.5755
      Cm = -0.0450     CD =  0.01137   =>   CDf =  0.00718    CDp =  0.00420

 Side 1  free  transition at x/c =  0.1837   31
 Side 2 forced transition at x/c =  0.9999   69

   2   rms: 0.1040E+00   max: -.7573E+00   D at   32  1   RLX: 0.660
       a =  3.000      CL =  0.5982
      Cm = -0.0445     CD =  0.01182   =>   CDf =  0.00771    CDp =  0.00411

 Side 1  free  transition at x/c =  0.1681   31
 Side 2 forced transition at x/c =  0.9999   68

   3   rms: 0.3958E-01   max: -.3297E+00   C at   31  1
       a =  3.000      CL =  0.6105
      Cm = -0.0445     CD =  0.01217   =>   CDf =  0.00758    CDp =  0.00458

 Side 1  free  transition at x/c =  0.1586   31
 Side 2 forced transition at x/c =  0.9999   68

   4   rms: 0.3958E-02   max: -.5440E-01   D at   31  1
       a =  3.000      CL =  0.6098
      Cm = -0.0444     CD =  0.01239   =>   CDf =  0.00757    CDp =  0.00483

 Side 1  free  transition at x/c =  0.1583   31
 Side 2 forced transition at x/c =  0.9999   68

   5   rms: 0.1084E-03   max: 0.1017E-02   D at   31  1
       a =  3.000      CL =  0.6098
      Cm = -0.0444     CD =  0.01240   =>   CDf =  0.00757    CDp =  0.00483

 Side 1  free  transition at x/c =  0.1583   31
 Side 2 forced transition at x/c =  0.9999   68

   6   rms: 0.1260E-05   max: -.3773E-05   T at   61  1
       a =  3.000      CL =  0.6098
      Cm = -0.0444     CD =  0.01240   =>   CDf =  0.00757    CDp =  0.00483

.OPERv   c>  
.OPERv   c>  
Enter flap hinge x location   r>  
  Top    surface:  y =  0.0160     y/t = 1.0
  Bottom surface:  y = -0.0160     y/t = 0.0

Enter flap hinge y location (or 999 to specify y/t)   r>  
 Flap hinge x,y :  0.7000  0.0000
                                           2  2
 Hinge moment/span = 0.010303  x  1/2 rho V  c 
                                           2   
 x-Force     /span = 0.002895  x  1/2 rho V  c 
                                           2   
 y-Force     /span = 0.098500  x  1/2 rho V  c 


.OPERv   c>   Calculating wake trajectory ...
 Calculating source influence matrix ...

 Solving BL system ...

 Side 1  free  transition at x/c =  0.1583   31
 Side 2 forced transition at x/c =  0.9999   68

   1   rms: 0.2176E+00   max: 0.1401E+01   T at   31  1   RLX: 0.423
       a =  4.000      CL =  0.6551
      Cm = -0.0439     CD =  0.01324   =>   CDf =  0.00757    CDp =  0.00567

 MRCHDU: Convergence failed at  31  side 1    Res =  0.6312E+01
 Side 1  free  transition at x/c =  0.1389   30
 Side 2 forced transition at x/c =  0.9999   68

   2   rms: 0.1492E+00   max: -.9492E+00   D at   31  1   RLX: 0.527
       a =  4.000      CL =  0.6917
      Cm = -0.0433     CD =  0.01344   =>   CDf =  0.00741    CDp =  0.00603

 MRCHDU: Convergence failed at  31  side 1    Res =  0.2191E+01
 Side 1  free  transition at x/c =  0.1276   30
 Side 2 forced transition at x/c =  0.9999   67

   3   rms: 0.8592E-01   max: 0.6045E+00   T at   30  1   RLX: 0.952
       a =  4.000      CL =  0.7183
      Cm = -0.0431     CD =  0.01345   =>   CDf =  0.00750    CDp =  0.00595

 MRCHDU: Convergence failed at  30  side 1    Res =  0.1661E+02
 Side 1  free  transition at x/c =  0.1120   29
 Side 2 forced transition at x/c =  0.9999   67

   4   rms: 0.6168E-01   max: -.4793E+00   D at   30  1
       a =  4.000      CL =  0.7163
      Cm = -0.0429     CD =  0.01415   =>   CDf =  0.00755    CDp =  0.00660

 Side 1  free  transition at x/c =  0.1095   29
 Side 2 forced transition at x/c =  0.9999   67

   5   rms: 0.8546E-02   max: 0.1508E+00   D at   30  1
       a =  4.000      CL =  0.7171
      Cm = -0.0431     CD =  0.01421   =>   CDf =  0.00769    CDp =  0.00651

 Side 1  free  transition at x/c =  0.1100   29
 Side 2 forced transition at x/c =  0.9999   67

   6   rms: 0.5017E-03   max: -.9936E-02   D at   30  1
       a =  4.000      CL =  0.7171
      Cm = -0.0431     CD =  0.01421   =>   CDf =  0.00768    CDp =  0.00653

 Side 1  free  transition at x/c =  0.1100   29
 Side 2 forced transition at x/c =  0.9999   67

   7   rms: 0.3715E-05   max: -.6638E-04   D at   30  1
       a =  4.000      CL =  0.7171
      Cm = -0.0431     CD =  0.01421   =>   CDf =  0.00768    CDp =  0.00653

.OPERv   c>  
.OPERv   c>  
Enter flap hinge x location   r>  
  Top    surface:  y =  0.0160     y/t = 1.0
  Bottom surface:  y = -0.0160     y/t = 0.0

Enter flap hinge y location (or 999 to specify y/t)   r>  
 Flap hinge x,y :  0.7000  0.0000
                                           2  2
 Hinge moment/span = 0.010890  x  1/2 rho V  c 
                                           2   
 x-Force     /span = 0.003053  x  1/2 rho V  c 
                                           2   
 y-Force     /span = 0.105087  x  1/2 rho V  c 


.OPERv   c>   Calculating wake trajectory ...
 Calculating source influence matrix ...

 Solving BL system ...

 Side 1  free  transition at x/c =  0.1100   29
 Side 2 forced transition at x/c =  0.9999   67

   1   rms: 0.2102E+00   max: 0.1627E+01   T at   29  1   RLX: 0.471
       a =  5.000      CL =  0.7678
      Cm = -0.0425     CD =  0.01498   =>   CDf =  0.00754    CDp =  0.00745

 MRCHDU: Convergence failed at  30  side 1    Res =  0.5710E+01
 MRCHDU: Convergence failed at  31  side 1    Res =  0.3517E+01
 MRCHDU: Convergence failed at  32  side 1    Res =  0.1398E+02
 MRCHDU: Convergence failed at  33  side 1    Res =  0.2217E+02
 MRCHDU: Convergence failed at  34  side 1    Res =  0.1980E+02
 MRCHDU: Convergence failed at  35  side 1    Res =  0.3179E+02
 MRCHDU: Convergence failed at  36  side 1    Res =  0.3498E+02
 MRCHDU: Convergence failed at  37  side 1    Res =  0.3355E+02
 MRCHDU: Convergence failed at  38  side 1    Res =  0.1290E+02
 MRCHDU: Convergence failed at  39  side 1    Res =  0.1161E+02
 MRCHDU: Convergence failed at  40  side 1    Res =  0.1071E+02
 MRCHDU: Convergence failed at  41  side 1    Res =  0.9806E+01
 MRCHDU: Convergence failed at  42  side 1    Res =  0.6036E+01
 MRCHDU: Convergence failed at  43  side 1    Res =  0.5819E+01
 MRCHDU: Convergence failed at  44  side 1    Res =  0.3394E+02
 MRCHDU: Convergence failed at  45  side 1    Res =  0.5006E+02
 MRCHDU: Convergence failed at  46  side 1    Res =  0.7544E+02
 MRCHDU: Convergence failed at  47  side 1    Res =  0.1529E+03
 MRCHDU: Convergence failed at  48  side 1    Res =  0.4263E+03
 MRCHDU: Convergence failed at  49  side 1    Res =  0.8486E+02
 MRCHDU: Convergence failed at  50  side 1    Res =  0.5621E+02
 MRCHDU: Convergence failed at  51  side 1    Res =  0.4115E+02
 MRCHDU: Convergence failed at  52  side 1    Res =  0.3446E+02
 MRCHDU: Convergence failed at  53  side 1    Res =  0.3038E+02
 MRCHDU: Convergence failed at  54  side 1    Res =  0.2755E+02
 MRCHDU: Convergence failed at  55  side 1    Res =  0.2552E+02
 MRCHDU: Convergence failed at  56  side 1    Res =  0.2406E+02
 MRCHDU: Convergence failed at  57  side 1    Res =  0.2280E+02
 MRCHDU: Convergence failed at  58  side 1    Res =  0.2206E+02
 MRCHDU: Convergence failed at  59  side 1    Res =  0.2134E+02
 MRCHDU: Convergence failed at  60  side 1    Res =  0.2095E+02
 MRCHDU: Convergence failed at  61  side 1    Res =  0.2080E+02
 MRCHDU: Convergence failed at  62  side 1    Res =  0.2082E+02
 MRCHDU: Convergence failed at  63  side 1    Res =  0.2197E+02
 MRCHDU: Convergence failed at  64  side 1    Res =  0.2436E+02
 MRCHDU: Convergence failed at  65  side 1    Res =  0.2864E+02
 MRCHDU: Convergence failed at  66  side 1    Res =  0.3561E+02
 MRCHDU: Convergence failed at  67  side 1    Res =  0.2234E+02
 MRCHDU: Convergence failed at  68  side 1    Res =  0.2297E+02
 MRCHDU: Convergence failed at  69  side 1    Res =  0.6918E+02
 MRCHDU: Convergence failed at  70  side 1    Res =  0.3792E+02
 MRCHDU: Convergence failed at  71  side 1    Res =  0.1381E+02
 MRCHDU: Convergence failed at  72  side 1    Res =  0.2283E+02
 MRCHDU: Convergence failed at  73  side 1    Res =  0.3743E+02
 MRCHDU: Convergence failed at  74  side 1    Res =  0.4283E+02
 MRCHDU: Convergence failed at  75  side 1    Res =  0.1928E+02
 MRCHDU: Convergence failed at  76  side 1    Res =  0.2099E+02
 MRCHDU: Convergence failed at  77  side 1    Res =  0.5985E+02
 MRCHDU: Convergence failed at  78  side 1    Res =  0.2069E+05
 Side 1  free  transition at x/c =  0.0950   29
 Side 2 forced transition at x/c =  0.9999   66

   2   rms: 0.8108E+00   max: 0.3654E+01   D at   68  2   RLX: 0.137
       a =  5.000      CL =  1.5417
      Cm = -0.3269     CD =  0.00683   =>   CDf =  0.00270    CDp =  0.00413

 MRCHDU: Convergence failed at  46  side 1    Res =  0.2555E-01
 Side 1  free  transition at x/c =  0.0894   28
 Side 2 forced transition at x/c =  0.9999   66

   3   rms: 0.3757E+00   max: -.5639E+00   D at   67  2   RLX: 0.467
       a =  5.000      CL =  1.0068
      Cm = -0.1320     CD =  0.02399   =>   CDf =  0.00570    CDp =  0.01829

 Side 1  free  transition at x/c =  0.0912   29
 Side 2 forced transition at x/c =  0.9999   66

   4   rms: 0.4431E+00   max: -.2960E+01   D at   34  1   RLX: 0.169
       a =  5.000      CL =  0.9408
      Cm = -0.1046     CD =  0.02223   =>   CDf =  0.00581    CDp =  0.01643

 Side 1  free  transition at x/c =  0.0916   29
 Side 2 forced transition at x/c =  0.9999   66

   5   rms: 0.4003E+00   max: -.2391E+01   D at   34  1   RLX: 0.209
       a =  5.000      CL =  0.9069
      Cm = -0.0864     CD =  0.02057   =>   CDf =  0.00593    CDp =  0.01464

 MRCHDU: Convergence failed at  33  side 1    Res =  0.2971E+00
 MRCHDU: Convergence failed at  34  side 1    Res =  0.1640E+00
 MRCHDU: Convergence failed at  35  side 1    Res =  0.8119E+00
 MRCHDU: Convergence failed at  36  side 1    Res =  0.5431E+04
 Side 1  free  transition at x/c =  0.0907   29
 Side 2 forced transition at x/c =  0.9999   66

   6   rms: 0.4509E+00   max: -.2474E+01   D at   42  1   RLX: 0.202
       a =  5.000      CL =  0.9390
      Cm = -0.0701     CD =  0.01928   =>   CDf =  0.00684    CDp =  0.01244

 MRCHDU: Convergence failed at  40  side 1    Res =  0.9666E+00
 MRCHDU: Convergence failed at  41  side 1    Res =  0.4732E+00
 MRCHDU: Convergence failed at  42  side 1    Res =  0.8965E+00
 MRCHDU: Convergence failed at  43  side 1    Res =  0.9597E+00
 MRCHDU: Convergence failed at  44  side 1    Res =  0.1790E+01
 MRCHDU: Convergence failed at  45  side 1    Res =  0.2867E+01
 MRCHDU: Convergence failed at  49  side 1    Res =  0.3473E+01
 MRCHDU: Convergence failed at  50  side 1    Res =  0.3905E+01
 MRCHDU: Convergence failed at  51  side 1    Res =  0.4812E+01
 MRCHDU: Convergence failed at  52  side 1    Res =  0.6984E+01
 MRCHDU: Convergence failed at  53  side 1    Res =  0.2205E+02
 MRCHDU: Convergence failed at  54  side 1    Res =  0.9956E+01
 MRCHDU: Convergence failed at  57  side 1    Res =  0.1741E+01
 MRCHDU: Convergence failed at  58  side 1    Res =  0.1020E+01
 MRCHDU: Convergence failed at  59  side 1    Res =  0.1234E+01
 MRCHDU: Convergence failed at  60  side 1    Res =  0.1400E+01
 MRCHDU: Convergence failed at  61  side 1    Res =  0.1496E+01
 MRCHDU: Convergence failed at  62  side 1    Res =  0.1514E+01
 MRCHDU: Convergence failed at  63  side 1    Res =  0.1252E+01
 MRCHDU: Convergence failed at  64  side 1    Res =  0.1447E+01
 MRCHDU: Convergence failed at  65  side 1    Res =  0.1785E+01
 MRCHDU: Convergence failed at  66  side 1    Res =  0.2571E+01
 MRCHDU: Convergence failed at  67  side 1    Res =  0.1314E+01
 Side 1  free  transition at x/c =  0.0897   28
 Side 2 forced transition at x/c =  0.9999   66

   7   rms: 0.3720E+00   max: -.6057E+00   D at   67  2   RLX: 0.334
       a =  5.000      CL =  1.1291
      Cm = -0.1360     CD =  0.01524   =>   CDf =  0.00819    CDp =  0.00705

 Side 1  free  transition at x/c =  0.0828   28
 Side 2 forced transition at x/c =  0.9999   66

   8   rms: 0.2097E+00   max: 0.4420E+00   C at   66  2   RLX: 0.671
       a =  5.000      CL =  0.9175
      Cm = -0.0699     CD =  0.01514   =>   CDf =  0.00920    CDp =  0.00594

 Side 1  free  transition at x/c =  0.0768   27
 Side 2 forced transition at x/c =  0.9999   66

   9   rms: 0.7843E-01   max: -.4123E+00   D at   49  1
       a =  5.000      CL =  0.8224
      Cm = -0.0413     CD =  0.01624   =>   CDf =  0.00828    CDp =  0.00796

 Side 1  free  transition at x/c =  0.0738   27
 Side 2 forced transition at x/c =  0.9999   66

  10   rms: 0.5434E-02   max: -.7702E-01   D at   49  1
       a =  5.000      CL =  0.8218
      Cm = -0.0414     CD =  0.01653   =>   CDf =  0.00768    CDp =  0.00885
 VISCAL:  Convergence failed
 Type "!" to continue iterating

.OPERv   c>  
.OPERv   c>  
Enter flap hinge x location   r>  
  Top    surface:  y =  0.0160     y/t = 1.0
  Bottom surface:  y = -0.0160     y/t = 0.0

Enter flap hinge y location (or 999 to specify y/t)   r>  
 Flap hinge x,y :  0.7000  0.0000
                                           2  2
 Hinge moment/span = 0.011400  x  1/2 rho V  c 
                                           2   
 x-Force     /span = 0.003185  x  1/2 rho V  c 
                                           2   
 y-Force     /span = 0.110912  x  1/2 rho V  c 


.OPERv   c>  
 Solving BL system ...

 Side 1  free  transition at x/c =  0.0736   27
 Side 2 forced transition at x/c =  0.9999   66

   1   rms: 0.1489E-03   max: -.2321E-02   D at   49  1
       a =  5.000      CL =  0.8219
      Cm = -0.0414     CD =  0.01653   =>   CDf =  0.00768    CDp =  0.00885

 Side 1  free  transition at x/c =  0.0736   27
 Side 2 forced transition at x/c =  0.9999   66

   2   rms: 0.4313E-06   max: 0.3141E-05   T at   27  1
       a =  5.000      CL =  0.8219
      Cm = -0.0414     CD =  0.01653   =>   CDf =  0.00768    CDp =  0.00885
 Calculating wake trajectory ...
 Calculating source influence matrix ...

 Solving BL system ...

 Side 1  free  transition at x/c =  0.0736   27
 Side 2 forced transition at x/c =  0.9999   66

   1   rms: 0.9952E-01   max: 0.7996E+00   T at   27  1
       a =  5.500      CL =  0.8757
      Cm = -0.0404     CD =  0.01734   =>   CDf =  0.00748    CDp =  0.00986

 Side 1  free  transition at x/c =  0.0612   27
 Side 2 forced transition at x/c =  0.9999   65

   2   rms: 0.6738E-01   max: -.4065E+00   D at   27  1
       a =  5.500      CL =  0.8724
      Cm = -0.0402     CD =  0.01766   =>   CDf =  0.00755    CDp =  0.01011

 Side 1  free  transition at x/c =  0.0603   27
 Side 2 forced transition at x/c =  0.9999   65

   3   rms: 0.5418E-02   max: 0.3842E-01   T at   27  1
       a =  5.500      CL =  0.8735
      Cm = -0.0404     CD =  0.01779   =>   CDf =  0.00761    CDp =  0.01017

 Side 1  free  transition at x/c =  0.0598   27
 Side 2 forced transition at x/c =  0.9999   65

   4   rms: 0.2321E-03   max: -.1909E-02   D at   27  1
       a =  5.500      CL =  0.8735
      Cm = -0.0404     CD =  0.01778   =>   CDf =  0.00762    CDp =  0.01016

 Side 1  free  transition at x/c =  0.0598   27
 Side 2 forced transition at x/c =  0.9999   65

   5   rms: 0.2706E-05   max: -.7551E-05   D at   40  1
       a =  5.500      CL =  0.8735
      Cm = -0.0404     CD =  0.01778   =>   CDf =  0.00762    CDp =  0.01016
 Calculating wake trajectory ...
 Calculating source influence matrix ...

 Solving BL system ...

 Side 1  free  transition at x/c =  0.0598   27
 Side 2 forced transition at x/c =  0.9999   65

   1   rms: 0.1026E+00   max: 0.8307E+00   T at   27  1
       a =  6.000      CL =  0.9258
      Cm = -0.0395     CD =  0.01867   =>   CDf =  0.00762    CDp =  0.01105

 MRCHDU: Convergence failed at  27  side 1    Res =  0.6558E+01
 MRCHDU: Convergence failed at  28  side 1    Res =  0.7553E+01
 MRCHDU: Convergence failed at  29  side 1    Res =  0.6533E+01
 MRCHDU: Convergence failed at  30  side 1    Res =  0.7023E+01
 MRCHDU: Convergence failed at  31  side 1    Res =  0.8101E+01
 MRCHDU: Convergence failed at  32  side 1    Res =  0.1029E+02
 MRCHDU: Convergence failed at  33  side 1    Res =  0.1340E+02
 MRCHDU: Convergence failed at  34  side 1    Res =  0.1870E+02
 MRCHDU: Convergence failed at  35  side 1    Res =  0.4326E+02
 MRCHDU: Convergence failed at  36  side 1    Res =  0.1399E+02
 MRCHDU: Convergence failed at  37  side 1    Res =  0.1465E+02
 MRCHDU: Convergence failed at  38  side 1    Res =  0.2719E+02
 MRCHDU: Convergence failed at  39  side 1    Res =  0.4066E+03
 MRCHDU: Convergence failed at  40  side 1    Res =  0.7952E+02
 MRCHDU: Convergence failed at  41  side 1    Res =  0.9142E+02
 MRCHDU: Convergence failed at  42  side 1    Res =  0.1292E+03
 MRCHDU: Convergence failed at  43  side 1    Res =  0.2797E+03
 MRCHDU: Convergence failed at  44  side 1    Res =  0.1654E+03
 MRCHDU: Convergence failed at  45  side 1    Res =  0.7226E+03
 MRCHDU: Convergence failed at  46  side 1    Res =  0.5994E+02
 MRCHDU: Convergence failed at  47  side 1    Res =  0.5544E+02
 MRCHDU: Convergence failed at  48  side 1    Res =  0.5284E+02
 MRCHDU: Convergence failed at  49  side 1    Res =  0.5756E+02
 MRCHDU: Convergence failed at  50  side 1    Res =  0.5615E+02
 MRCHDU: Convergence failed at  51  side 1    Res =  0.6238E+02
 MRCHDU: Convergence failed at  52  side 1    Res =  0.2237E+02
 MRCHDU: Convergence failed at  53  side 1    Res =  0.2258E+02
 MRCHDU: Convergence failed at  54  side 1    Res =  0.3634E+02
 MRCHDU: Convergence failed at  55  side 1    Res =  0.2387E+02
 MRCHDU: Convergence failed at  56  side 1    Res =  0.2355E+02
 MRCHDU: Convergence failed at  57  side 1    Res =  0.2538E+02
 MRCHDU: Convergence failed at  58  side 1    Res =  0.3468E+02
 MRCHDU: Convergence failed at  59  side 1    Res =  0.4543E+02
 MRCHDU: Convergence failed at  60  side 1    Res =  0.4670E+02
 MRCHDU: Convergence failed at  61  side 1    Res =  0.3193E+02
 MRCHDU: Convergence failed at  62  side 1    Res =  0.3228E+02
 MRCHDU: Convergence failed at  63  side 1    Res =  0.3250E+02
 MRCHDU: Convergence failed at  64  side 1    Res =  0.2639E+02
 MRCHDU: Convergence failed at  65  side 1    Res =  0.2968E+02
 MRCHDU: Convergence failed at  66  side 1    Res =  0.2873E+02
 MRCHDU: Convergence failed at  67  side 1    Res =  0.2916E+02
 MRCHDU: Convergence failed at  68  side 1    Res =  0.2876E+02
 MRCHDU: Convergence failed at  69  side 1    Res =  0.3241E+02
 MRCHDU: Convergence failed at  70  side 1    Res =  0.4284E+02
 MRCHDU: Convergence failed at  71  side 1    Res =  0.5301E+02
 MRCHDU: Convergence failed at  72  side 1    Res =  0.7020E+02
 MRCHDU: Convergence failed at  73  side 1    Res =  0.4601E+03
 MRCHDU: Convergence failed at  74  side 1    Res =  0.5421E+03
 MRCHDU: Convergence failed at  75  side 1    Res =  0.1697E+03
 MRCHDU: Convergence failed at  76  side 1    Res =  0.1431E+03
 MRCHDU: Convergence failed at  77  side 1    Res =  0.5166E+02
 MRCHDU: Convergence failed at  78  side 1    Res =  0.5795E+02
 MRCHDU: Convergence failed at  79  side 1    Res =  0.5603E+02
 Side 1  free  transition at x/c =  0.0507   26
 Side 2 forced transition at x/c =  0.9999   65

   2   rms: 0.1523E+01   max: 0.7183E+01   D at   67  2   RLX: 0.073
       a =  6.000      CL =  2.6417
      Cm = -0.6124     CD =  0.00583   =>   CDf =  0.00231    CDp =  0.00352

 MRCHDU: Convergence failed at  46  side 1    Res =  0.2078E+00
 MRCHDU: Convergence failed at  47  side 1    Res =  0.1652E+00
 MRCHDU: Convergence failed at  48  side 1    Res =  0.1202E+00
 MRCHDU: Convergence failed at  49  side 1    Res =  0.6636E-01
 Side 1  free  transition at x/c =  0.0482   26
 Side 2 forced transition at x/c =  0.9999   65

   3   rms: 0.5707E+00   max: -.6859E+00   D at   66  2   RLX: 0.294
       a =  6.000      CL =  1.7083
      Cm = -0.3088     CD =  0.03961   =>   CDf =  0.00414    CDp =  0.03548

 MRCHDU: Convergence failed at  49  side 1    Res =  0.2543E+00
 MRCHDU: Convergence failed at  50  side 1    Res =  0.7961E+00
 Side 1  free  transition at x/c =  0.0486   26
 Side 2 forced transition at x/c =  0.9999   65

   4   rms: 0.5425E+00   max: -.1347E+01   D at   38  1   RLX: 0.371
       a =  6.000      CL =  1.2366
      Cm = -0.1069     CD =  0.03917   =>   CDf =  0.00317    CDp =  0.03600

 Side 1  free  transition at x/c =  0.0487   27
 Side 2 forced transition at x/c =  0.9999   64

   5   rms: 0.1213E+01   max: -.3204E+01   D at   44  1   RLX: 0.156
       a =  6.000      CL =  1.1207
      Cm = -0.0380     CD =  0.03024   =>   CDf =  0.00357    CDp =  0.02667

 Side 1  free  transition at x/c =  0.0476   27
 Side 2 forced transition at x/c =  0.9999   64

   6   rms: 0.1111E+01   max: -.3580E+01   D at   40  1   RLX: 0.140
       a =  6.000      CL =  1.0768
      Cm = -0.0195     CD =  0.02105   =>   CDf =  0.00477    CDp =  0.01628

 Side 1  free  transition at x/c =  0.0479   27
 Side 2 forced transition at x/c =  0.9999   64

   7   rms: 0.1728E+01   max: -.7240E+01   D at   36  1   RLX: 0.069
       a =  6.000      CL =  1.0771
      Cm = -0.0196     CD =  0.01986   =>   CDf =  0.00539    CDp =  0.01447

 Side 1  free  transition at x/c =  0.0483   27
 Side 2 forced transition at x/c =  0.9999   64

   8   rms: 0.3681E+00   max: -.1138E+01   D at   35  1   RLX: 0.439
       a =  6.000      CL =  0.9829
      Cm = -0.0218     CD =  0.01941   =>   CDf =  0.00623    CDp =  0.01318

 Side 1  free  transition at x/c =  0.0521   27
 Side 2 forced transition at x/c =  0.9999   64
 idif Ue xi dudx           1  0.12266240      3.76737118E-03   32.559151    
 Uenew xinew           2  6.64099539E-03  2.03967094E-04

   9   rms: 0.2097E+00   max: -.8938E+00   D at   69  1   RLX: 0.559
       a =  6.000      CL =  0.9314
      Cm = -0.0244     CD =  0.01974   =>   CDf =  0.00679    CDp =  0.01295

 Side 1  free  transition at x/c =  0.0521   26
 Side 2 forced transition at x/c =  0.9999   65

  10   rms: 0.7847E-01   max: -.5157E+00   D at   68  1   RLX: 0.970
       a =  6.000      CL =  0.9250
      Cm = -0.0383     CD =  0.01883   =>   CDf =  0.00724    CDp =  0.01160

 Side 1  free  transition at x/c =  0.0488   26
 Side 2 forced transition at x/c =  0.9999   65

  11   rms: 0.1708E-01   max: -.1594E+00   D at   68  1
       a =  6.000      CL =  0.9238
      Cm = -0.0393     CD =  0.01926   =>   CDf =  0.00756    CDp =  0.01171

 Side 1  free  transition at x/c =  0.0488   26
 Side 2 forced transition at x/c =  0.9999   65

  12   rms: 0.7229E-03   max: -.1024E-01   D at   68  1
       a =  6.000      CL =  0.9237
      Cm = -0.0393     CD =  0.01928   =>   CDf =  0.00758    CDp =  0.01170

 Side 1  free  transition at x/c =  0.0488   26
 Side 2 forced transition at x/c =  0.9999   65

  13   rms: 0.3513E-05   max: -.4456E-04   D at   68  1
       a =  6.000      CL =  0.9237
      Cm = -0.0393     CD =  0.01928   =>   CDf =  0.00758    CDp =  0.01170
 Calculating wake trajectory ...
 Calculating source influence matrix ...

 Solving BL system ...

 Side 1  free  transition at x/c =  0.0488   26
 Side 2 forced transition at x/c =  0.9999   65

   1   rms: 0.1110E+00   max: 0.9616E+00   T at   26  1
       a =  6.500      CL =  0.9724
      Cm = -0.0382     CD =  0.02099   =>   CDf =  0.00731    CDp =  0.01368

 MRCHDU: Convergence failed at  27  side 1    Res =  0.4628E+02
 MRCHDU: Convergence failed at  28  side 1    Res =  0.3920E+01
 MRCHDU: Convergence failed at  29  side 1    Res =  0.8025E+01
 MRCHDU: Convergence failed at  30  side 1    Res =  0.8042E+01
 MRCHDU: Convergence failed at  31  side 1    Res =  0.9680E+01
 MRCHDU: Convergence failed at  32  side 1    Res =  0.1213E+02
 MRCHDU: Convergence failed at  33  side 1    Res =  0.1620E+02
 MRCHDU: Convergence failed at  34  side 1    Res =  0.3625E+02
 MRCHDU: Convergence failed at  35  side 1    Res =  0.2701E+02
 MRCHDU: Convergence failed at  36  side 1    Res =  0.2282E+02
 MRCHDU: Convergence failed at  37  side 1    Res =  0.3954E+02
 MRCHDU: Convergence failed at  38  side 1    Res =  0.1627E+02
 MRCHDU: Convergence failed at  39  side 1    Res =  0.1756E+02
 MRCHDU: Convergence failed at  40  side 1    Res =  0.2213E+02
 MRCHDU: Convergence failed at  41  side 1    Res =  0.3313E+02
 MRCHDU: Convergence failed at  42  side 1    Res =  0.2953E+02
 MRCHDU: Convergence failed at  43  side 1    Res =  0.1269E+03
 MRCHDU: Convergence failed at  44  side 1    Res =  0.2691E+02
 MRCHDU: Convergence failed at  45  side 1    Res =  0.2975E+02
 MRCHDU: Convergence failed at  46  side 1    Res =  0.7082E+02
 MRCHDU: Convergence failed at  47  side 1    Res =  0.5448E+02
 MRCHDU: Convergence failed at  48  side 1    Res =  0.2731E+02
 MRCHDU: Convergence failed at  49  side 1    Res =  0.2280E+02
 MRCHDU: Convergence failed at  50  side 1    Res =  0.2466E+02
 MRCHDU: Convergence failed at  51  side 1    Res =  0.3843E+02
 MRCHDU: Convergence failed at  52  side 1    Res =  0.4032E+02
 MRCHDU: Convergence failed at  53  side 1    Res =  0.3523E+02
 MRCHDU: Convergence failed at  54  side 1    Res =  0.3742E+02
 MRCHDU: Convergence failed at  55  side 1    Res =  0.2650E+02
 MRCHDU: Convergence failed at  56  side 1    Res =  0.2767E+02
 MRCHDU: Convergence failed at  57  side 1    Res =  0.2881E+02
 MRCHDU: Convergence failed at  58  side 1    Res =  0.2992E+02
 MRCHDU: Convergence failed at  59  side 1    Res =  0.3109E+02
 MRCHDU: Convergence failed at  60  side 1    Res =  0.3213E+02
 MRCHDU: Convergence failed at  61  side 1    Res =  0.3061E+02
 MRCHDU: Convergence failed at  62  side 1    Res =  0.3109E+02
 MRCHDU: Convergence failed at  63  side 1    Res =  0.3136E+02
 MRCHDU: Convergence failed at  64  side 1    Res =  0.3149E+02
 MRCHDU: Convergence failed at  65  side 1    Res =  0.3174E+02
 MRCHDU: Convergence failed at  66  side 1    Res =  0.2855E+02
 MRCHDU: Convergence failed at  67  side 1    Res =  0.2761E+02
 MRCHDU: Convergence failed at  68  side 1    Res =  0.2985E+02
 MRCHDU: Convergence failed at  69  side 1    Res =  0.2784E+02
 MRCHDU: Convergence failed at  70  side 1    Res =  0.3611E+02
 MRCHDU: Convergence failed at  71  side 1    Res =  0.4535E+02
 MRCHDU: Convergence failed at  72  side 1    Res =  0.6219E+02
 MRCHDU: Convergence failed at  73  side 1    Res =  0.6141E+02
 MRCHDU: Convergence failed at  74  side 1    Res =  0.1711E+03
 MRCHDU: Convergence failed at  75  side 1    Res =  0.1601E+03
 MRCHDU: Convergence failed at  76  side 1    Res =  0.5209E+02
 MRCHDU: Convergence failed at  77  side 1    Res =  0.6232E+02
 MRCHDU: Convergence failed at  78  side 1    Res =  0.7642E+02
 MRCHDU: Convergence failed at  79  side 1    Res =  0.5592E+02
 MRCHDU: Convergence failed at  80  side 1    Res =  0.9012E+02
 Side 1  free  transition at x/c =  0.0421   26
 Side 2 forced transition at x/c =  0.9999   64

   2   rms: 0.1668E+01   max: 0.7870E+01   D at   66  2   RLX: 0.066
       a =  6.500      CL =  3.0003
      Cm = -0.7020     CD =  0.00581   =>   CDf =  0.00221    CDp =  0.00359

 MRCHDU: Convergence failed at  32  side 1    Res =  0.3004E+00
 MRCHDU: Convergence failed at  33  side 1    Res =  0.2869E+00
 MRCHDU: Convergence failed at  34  side 1    Res =  0.2716E+00
 MRCHDU: Convergence failed at  35  side 1    Res =  0.2533E+00
 MRCHDU: Convergence failed at  36  side 1    Res =  0.2161E+00
 MRCHDU: Convergence failed at  38  side 1    Res =  0.2899E+00
 MRCHDU: Convergence failed at  39  side 1    Res =  0.2862E+00
 MRCHDU: Convergence failed at  40  side 1    Res =  0.2826E+00
 MRCHDU: Convergence failed at  41  side 1    Res =  0.2793E+00
 MRCHDU: Convergence failed at  42  side 1    Res =  0.2757E+00
 MRCHDU: Convergence failed at  43  side 1    Res =  0.2722E+00
 MRCHDU: Convergence failed at  44  side 1    Res =  0.2689E+00
 MRCHDU: Convergence failed at  45  side 1    Res =  0.2658E+00
 MRCHDU: Convergence failed at  46  side 1    Res =  0.2627E+00
 MRCHDU: Convergence failed at  47  side 1    Res =  0.2599E+00
 MRCHDU: Convergence failed at  48  side 1    Res =  0.2570E+00
 MRCHDU: Convergence failed at  49  side 1    Res =  0.2545E+00
 MRCHDU: Convergence failed at  50  side 1    Res =  0.2519E+00
 MRCHDU: Convergence failed at  51  side 1    Res =  0.2495E+00
 MRCHDU: Convergence failed at  52  side 1    Res =  0.2475E+00
 MRCHDU: Convergence failed at  53  side 1    Res =  0.2455E+00
 MRCHDU: Convergence failed at  54  side 1    Res =  0.2437E+00
 MRCHDU: Convergence failed at  55  side 1    Res =  0.2422E+00
 MRCHDU: Convergence failed at  56  side 1    Res =  0.2410E+00
 MRCHDU: Convergence failed at  57  side 1    Res =  0.2399E+00
 MRCHDU: Convergence failed at  58  side 1    Res =  0.2392E+00
 MRCHDU: Convergence failed at  59  side 1    Res =  0.2387E+00
 MRCHDU: Convergence failed at  60  side 1    Res =  0.2386E+00
 MRCHDU: Convergence failed at  61  side 1    Res =  0.2386E+00
 MRCHDU: Convergence failed at  62  side 1    Res =  0.2390E+00
 MRCHDU: Convergence failed at  63  side 1    Res =  0.2397E+00
 MRCHDU: Convergence failed at  64  side 1    Res =  0.2408E+00
 MRCHDU: Convergence failed at  65  side 1    Res =  0.2422E+00
 MRCHDU: Convergence failed at  66  side 1    Res =  0.2439E+00
 MRCHDU: Convergence failed at  67  side 1    Res =  0.2459E+00
 MRCHDU: Convergence failed at  68  side 1    Res =  0.2538E+00
 MRCHDU: Convergence failed at  69  side 1    Res =  0.2464E+00
 MRCHDU: Convergence failed at  70  side 1    Res =  0.2478E+00
 MRCHDU: Convergence failed at  71  side 1    Res =  0.2478E+00
 MRCHDU: Convergence failed at  72  side 1    Res =  0.2485E+00
 MRCHDU: Convergence failed at  73  side 1    Res =  0.2501E+00
 MRCHDU: Convergence failed at  74  side 1    Res =  0.2522E+00
 MRCHDU: Convergence failed at  75  side 1    Res =  0.2548E+00
 MRCHDU: Convergence failed at  76  side 1    Res =  0.2573E+00
 MRCHDU: Convergence failed at  77  side 1    Res =  0.2587E+00
 MRCHDU: Convergence failed at  78  side 1    Res =  0.2579E+00
 MRCHDU: Convergence failed at  79  side 1    Res =  0.2551E+00
 MRCHDU: Convergence failed at  80  side 1    Res =  0.2265E+00
 Side 1  free  transition at x/c =  0.0402   26
 Side 2 forced transition at x/c =  0.9999   64

   3   rms: 0.6910E+00   max: 0.2569E+01   D at   71  2   RLX: 0.237
       a =  6.500      CL =  1.7995
      Cm = -0.3563     CD =  0.02479   =>   CDf =  0.00259    CDp =  0.02220

 Side 1  free  transition at x/c =  0.0410   26
 Side 2 forced transition at x/c =  0.9999   64
 idif Ue xi dudx           1  0.12312075      3.76331806E-03   32.716011    
 Uenew xinew           2  6.54038787E-03  1.99913979E-04

   4   rms: 0.3922E+00   max: 0.8330E+00   C at   64  2   RLX: 0.539
       a =  6.500      CL =  1.1400
      Cm = -0.1195     CD =  0.05054   =>   CDf =  0.00325    CDp =  0.04729

 Side 1  free  transition at x/c =  0.0441   25
 Side 2 forced transition at x/c =  0.9999   65

   5   rms: 0.1291E+01   max: 0.1090E+02   T at   25  1   RLX: 0.124
       a =  6.500      CL =  1.0847
      Cm = -0.0810     CD =  0.06220   =>   CDf =  0.00314    CDp =  0.05906

 Side 1  free  transition at x/c =  0.0382   24
 Side 2 forced transition at x/c =  0.9999   65

   6   rms: 0.9287E+00   max: 0.4359E+01   T at   24  1   RLX: 0.179
       a =  6.500      CL =  1.1266
      Cm = -0.0555     CD =  0.05067   =>   CDf =  0.00264    CDp =  0.04803

 MRCHDU: Convergence failed at  51  side 1    Res =  0.9681E+00
 MRCHDU: Convergence failed at  52  side 1    Res =  0.1757E+01
 MRCHDU: Convergence failed at  53  side 1    Res =  0.1492E+01
 MRCHDU: Convergence failed at  54  side 1    Res =  0.1028E+01
 MRCHDU: Convergence failed at  55  side 1    Res =  0.1024E+01
 MRCHDU: Convergence failed at  56  side 1    Res =  0.1031E+01
 MRCHDU: Convergence failed at  57  side 1    Res =  0.1042E+01
 MRCHDU: Convergence failed at  58  side 1    Res =  0.1057E+01
 MRCHDU: Convergence failed at  59  side 1    Res =  0.1074E+01
 MRCHDU: Convergence failed at  60  side 1    Res =  0.1093E+01
 MRCHDU: Convergence failed at  61  side 1    Res =  0.1116E+01
 MRCHDU: Convergence failed at  62  side 1    Res =  0.1142E+01
 MRCHDU: Convergence failed at  63  side 1    Res =  0.1172E+01
 MRCHDU: Convergence failed at  64  side 1    Res =  0.1209E+01
 MRCHDU: Convergence failed at  65  side 1    Res =  0.1249E+01
 MRCHDU: Convergence failed at  66  side 1    Res =  0.1296E+01
 MRCHDU: Convergence failed at  67  side 1    Res =  0.1353E+01
 MRCHDU: Convergence failed at  68  side 1    Res =  0.1398E+01
 MRCHDU: Convergence failed at  69  side 1    Res =  0.1575E+01
 MRCHDU: Convergence failed at  70  side 1    Res =  0.1841E+01
 MRCHDU: Convergence failed at  71  side 1    Res =  0.2243E+01
 MRCHDU: Convergence failed at  72  side 1    Res =  0.2946E+01
 MRCHDU: Convergence failed at  73  side 1    Res =  0.4185E+01
 MRCHDU: Convergence failed at  74  side 1    Res =  0.7014E+01
 MRCHDU: Convergence failed at  75  side 1    Res =  0.2199E+02
 MRCHDU: Convergence failed at  76  side 1    Res =  0.3697E+02
 MRCHDU: Convergence failed at  77  side 1    Res =  0.1081E+02
 MRCHDU: Convergence failed at  78  side 1    Res =  0.6854E+01
 MRCHDU: Convergence failed at  79  side 1    Res =  0.4316E+01
 MRCHDU: Convergence failed at  80  side 1    Res =  0.3527E+01
 Side 1  free  transition at x/c =  0.0335   25
 Side 2 forced transition at x/c =  0.9999   64

   7   rms: 0.4073E+00   max: 0.6154E+00   D at   68  2   RLX: 0.508
       a =  6.500      CL =  1.2742
      Cm = -0.1641     CD =  0.03392   =>   CDf =  0.00515    CDp =  0.02877

 Side 1  free  transition at x/c =  0.0344   25
 Side 2 forced transition at x/c =  0.9999   64

   8   rms: 0.2890E+00   max: -.2560E+00   U at   80  1   RLX: 0.532
       a =  6.500      CL =  1.0921
      Cm = -0.0948     CD =  0.03384   =>   CDf =  0.00489    CDp =  0.02895

 Side 1  free  transition at x/c =  0.0368   25
 Side 2 forced transition at x/c =  0.9999   64

   9   rms: 0.9085E+00   max: -.3092E+01   D at   36  1   RLX: 0.162
       a =  6.500      CL =  1.0640
      Cm = -0.0867     CD =  0.02750   =>   CDf =  0.00512    CDp =  0.02238

 Side 1  free  transition at x/c =  0.0394   25
 Side 2 forced transition at x/c =  0.9999   64

  10   rms: 0.1078E+01   max: 0.6484E+01   T at   25  1   RLX: 0.116
       a =  6.500      CL =  1.0461
      Cm = -0.0806     CD =  0.02524   =>   CDf =  0.00732    CDp =  0.01792

 Side 1  free  transition at x/c =  0.0359   25
 Side 2 forced transition at x/c =  0.9999   64

  11   rms: 0.3678E+00   max: -.1315E+01   D at   36  1   RLX: 0.380
       a =  6.500      CL =  1.0238
      Cm = -0.0630     CD =  0.02793   =>   CDf =  0.00508    CDp =  0.02285

 Side 1  free  transition at x/c =  0.0372   25
 Side 2 forced transition at x/c =  0.9999   64

  12   rms: 0.2616E+00   max: -.1016E+01   D at   34  1   RLX: 0.492
       a =  6.500      CL =  0.9996
      Cm = -0.0507     CD =  0.02487   =>   CDf =  0.00595    CDp =  0.01892

 Side 1  free  transition at x/c =  0.0387   25
 Side 2 forced transition at x/c =  0.9999   64

  13   rms: 0.2145E+00   max: -.1006E+01   D at   28  1   RLX: 0.497
       a =  6.500      CL =  0.9862
      Cm = -0.0452     CD =  0.02280   =>   CDf =  0.00693    CDp =  0.01587

 Side 1  free  transition at x/c =  0.0420   26
 Side 2 forced transition at x/c =  0.9999   64

  14   rms: 0.4121E-01   max: -.4415E+00   D at   28  1
       a =  6.500      CL =  0.9733
      Cm = -0.0381     CD =  0.02077   =>   CDf =  0.00741    CDp =  0.01336

 Side 1  free  transition at x/c =  0.0406   26
 Side 2 forced transition at x/c =  0.9999   64

  15   rms: 0.9524E-02   max: -.1708E+00   D at   28  1
       a =  6.500      CL =  0.9721
      Cm = -0.0380     CD =  0.02119   =>   CDf =  0.00746    CDp =  0.01373
 VISCAL:  Convergence failed
 Calculating wake trajectory ...
 Calculating source influence matrix ...

 Solving BL system ...

 Side 1  free  transition at x/c =  0.0403   26
 Side 2 forced transition at x/c =  0.9999   64

   1   rms: 0.1383E+00   max: 0.1023E+01   T at   26  1
       a =  7.000      CL =  1.0139
      Cm = -0.0363     CD =  0.02555   =>   CDf =  0.00751    CDp =  0.01804

 MRCHDU: Convergence failed at  26  side 1    Res =  0.8171E+02
 MRCHDU: Convergence failed at  27  side 1    Res =  0.7483E+02
 MRCHDU: Convergence failed at  28  side 1    Res =  0.2149E+02
 MRCHDU: Convergence failed at  29  side 1    Res =  0.8141E+02
 MRCHDU: Convergence failed at  30  side 1    Res =  0.2717E+03
 MRCHDU: Convergence failed at  31  side 1    Res =  0.3908E+02
 MRCHDU: Convergence failed at  32  side 1    Res =  0.3335E+02
 MRCHDU: Convergence failed at  33  side 1    Res =  0.2969E+02
 MRCHDU: Convergence failed at  34  side 1    Res =  0.4478E+02
 MRCHDU: Convergence failed at  35  side 1    Res =  0.5944E+02
 MRCHDU: Convergence failed at  36  side 1    Res =  0.5478E+02
 MRCHDU: Convergence failed at  37  side 1    Res =  0.4677E+02
 MRCHDU: Convergence failed at  38  side 1    Res =  0.3098E+02
 MRCHDU: Convergence failed at  39  side 1    Res =  0.2848E+02
 MRCHDU: Convergence failed at  40  side 1    Res =  0.2688E+02
 MRCHDU: Convergence failed at  41  side 1    Res =  0.2500E+02
 MRCHDU: Convergence failed at  42  side 1    Res =  0.2589E+02
 MRCHDU: Convergence failed at  43  side 1    Res =  0.3594E+02
 MRCHDU: Convergence failed at  44  side 1    Res =  0.3348E+02
 MRCHDU: Convergence failed at  45  side 1    Res =  0.3554E+02
 MRCHDU: Convergence failed at  46  side 1    Res =  0.3136E+02
 MRCHDU: Convergence failed at  47  side 1    Res =  0.3385E+02
 MRCHDU: Convergence failed at  48  side 1    Res =  0.3667E+02
 MRCHDU: Convergence failed at  49  side 1    Res =  0.3354E+02
 MRCHDU: Convergence failed at  50  side 1    Res =  0.3563E+02
 MRCHDU: Convergence failed at  51  side 1    Res =  0.3816E+02
 MRCHDU: Convergence failed at  52  side 1    Res =  0.3087E+02
 MRCHDU: Convergence failed at  53  side 1    Res =  0.3260E+02
 MRCHDU: Convergence failed at  54  side 1    Res =  0.3444E+02
 MRCHDU: Convergence failed at  55  side 1    Res =  0.3608E+02
 MRCHDU: Convergence failed at  56  side 1    Res =  0.4164E+02
 MRCHDU: Convergence failed at  57  side 1    Res =  0.3258E+02
 MRCHDU: Convergence failed at  58  side 1    Res =  0.3373E+02
 MRCHDU: Convergence failed at  59  side 1    Res =  0.3494E+02
 MRCHDU: Convergence failed at  60  side 1    Res =  0.3601E+02
 MRCHDU: Convergence failed at  61  side 1    Res =  0.3716E+02
 MRCHDU: Convergence failed at  62  side 1    Res =  0.3361E+02
 MRCHDU: Convergence failed at  63  side 1    Res =  0.3420E+02
 MRCHDU: Convergence failed at  64  side 1    Res =  0.3467E+02
 MRCHDU: Convergence failed at  65  side 1    Res =  0.3485E+02
 MRCHDU: Convergence failed at  66  side 1    Res =  0.3483E+02
 MRCHDU: Convergence failed at  67  side 1    Res =  0.3476E+02
 MRCHDU: Convergence failed at  68  side 1    Res =  0.3796E+02
 MRCHDU: Convergence failed at  69  side 1    Res =  0.4051E+02
 MRCHDU: Convergence failed at  70  side 1    Res =  0.5455E+02
 MRCHDU: Convergence failed at  71  side 1    Res =  0.6733E+02
 MRCHDU: Convergence failed at  72  side 1    Res =  0.8496E+02
 MRCHDU: Convergence failed at  73  side 1    Res =  0.9819E+02
 MRCHDU: Convergence failed at  74  side 1    Res =  0.6733E+02
 MRCHDU: Convergence failed at  75  side 1    Res =  0.8117E+02
 MRCHDU: Convergence failed at  76  side 1    Res =  0.9973E+02
 MRCHDU: Convergence failed at  77  side 1    Res =  0.1271E+03
 MRCHDU: Convergence failed at  78  side 1    Res =  0.1709E+03
 MRCHDU: Convergence failed at  79  side 1    Res =  0.2451E+03
 MRCHDU: Convergence failed at  80  side 1    Res =  0.5229E+03
 Side 1  free  transition at x/c =  0.0344   25
 Side 2 forced transition at x/c =  0.9999   64

   2   rms: 0.1702E+01   max: 0.9323E+01   D at   66  2   RLX: 0.058
       a =  7.000      CL =  3.3579
      Cm = -0.7938     CD =  0.00629   =>   CDf =  0.00220    CDp =  0.00409

 MRCHDU: Convergence failed at  38  side 1    Res =  0.2414E+00
 MRCHDU: Convergence failed at  39  side 1    Res =  0.4228E-01
 Side 1  free  transition at x/c =  0.0333   25
 Side 2 forced transition at x/c =  0.9999   64

   3   rms: 0.6984E+00   max: 0.7932E+00   D at   73  2   RLX: 0.218
       a =  7.000      CL =  2.2319
      Cm = -0.4389     CD =  0.05272   =>   CDf =  0.00344    CDp =  0.04927

 MRCHDU: Convergence failed at  39  side 1    Res =  0.4650E-01
 Side 1  free  transition at x/c =  0.0333   24
 Side 2 forced transition at x/c =  0.9999   64

   4   rms: 0.5907E+00   max: -.6867E+00   D at   65  2   RLX: 0.407
       a =  7.000      CL =  1.6635
      Cm = -0.2450     CD =  0.05261   =>   CDf =  0.00345    CDp =  0.04917

 Side 1  free  transition at x/c =  0.0324   24
 Side 2 forced transition at x/c =  0.9999   64

   5   rms: 0.5985E+00   max: 0.3456E+01   T at   24  1   RLX: 0.387
       a =  7.000      CL =  1.3884
      Cm = -0.1247     CD =  0.05849   =>   CDf =  0.00327    CDp =  0.05521

 Side 1  free  transition at x/c =  0.0300   24
 Side 2 forced transition at x/c =  0.9999   64
 idif Ue xi dudx           1  0.12216562      3.86500359E-03   31.608152    
 Uenew xinew           2  9.53300297E-03  3.01599503E-04

   6   rms: 0.8810E+00   max: 0.1564E+01   D at   67  2   RLX: 0.179
       a =  7.000      CL =  1.2528
      Cm = -0.1444     CD =  0.08103   =>   CDf =  0.00306    CDp =  0.07797

 Side 1  free  transition at x/c =  0.0333   23
 Side 2 forced transition at x/c =  0.9999   65

   7   rms: 0.3789E+00   max: 0.1263E+01   C at   65  2   RLX: 0.580
       a =  7.000      CL =  1.0467
      Cm = -0.0633     CD =  0.05377   =>   CDf =  0.00263    CDp =  0.05113

 Side 1  free  transition at x/c =  0.0341   25
 Side 2 forced transition at x/c =  0.9999   64

   8   rms: 0.3703E+00   max: -.1190E+01   D at   32  1   RLX: 0.420
       a =  7.000      CL =  1.0081
      Cm = -0.0520     CD =  0.03225   =>   CDf =  0.00535    CDp =  0.02690

 Side 1  free  transition at x/c =  0.0352   25
 Side 2 forced transition at x/c =  0.9999   64

   9   rms: 0.2708E+00   max: -.1249E+01   D at   30  1   RLX: 0.400
       a =  7.000      CL =  1.0122
      Cm = -0.0472     CD =  0.02343   =>   CDf =  0.00675    CDp =  0.01668

 Side 1  free  transition at x/c =  0.0359   25
 Side 2 forced transition at x/c =  0.9999   64

  10   rms: 0.1212E+00   max: -.8235E+00   D at   29  1   RLX: 0.607
       a =  7.000      CL =  1.0213
      Cm = -0.0413     CD =  0.02200   =>   CDf =  0.00712    CDp =  0.01488

 Side 1  free  transition at x/c =  0.0351   25
 Side 2 forced transition at x/c =  0.9999   64

  11   rms: 0.3953E-01   max: -.4009E+00   D at   29  1
       a =  7.000      CL =  1.0211
      Cm = -0.0368     CD =  0.02273   =>   CDf =  0.00721    CDp =  0.01552

 Side 1  free  transition at x/c =  0.0339   25
 Side 2 forced transition at x/c =  0.9999   64

  12   rms: 0.7566E-02   max: -.7716E-01   D at   29  1
       a =  7.000      CL =  1.0190
      Cm = -0.0365     CD =  0.02339   =>   CDf =  0.00731    CDp =  0.01608

 Side 1  free  transition at x/c =  0.0338   25
 Side 2 forced transition at x/c =  0.9999   64

  13   rms: 0.6412E-03   max: 0.3869E-02   D at   25  1
       a =  7.000      CL =  1.0189
      Cm = -0.0365     CD =  0.02342   =>   CDf =  0.00736    CDp =  0.01606

 Side 1  free  transition at x/c =  0.0338   25
 Side 2 forced transition at x/c =  0.9999   64

  14   rms: 0.3407E-05   max: -.1412E-04   D at   66  2
       a =  7.000      CL =  1.0189
      Cm = -0.0365     CD =  0.02342   =>   CDf =  0.00736    CDp =  0.01606
 Calculating wake trajectory ...
 Calculating source influence matrix ...

 Solving BL system ...

 Side 1  free  transition at x/c =  0.0338   25
 Side 2 forced transition at x/c =  0.9999   64

   1   rms: 0.1434E+00   max: 0.1035E+01   T at   25  1
       a =  7.500      CL =  1.0574
      Cm = -0.0347     CD =  0.02865   =>   CDf =  0.00701    CDp =  0.02164

 MRCHDU: Convergence failed at  26  side 1    Res =  0.1412E+03
 MRCHDU: Convergence failed at  27  side 1    Res =  0.1093E+02
 MRCHDU: Convergence failed at  28  side 1    Res =  0.7138E+03
 MRCHDU: Convergence failed at  29  side 1    Res =  0.2879E+02
 MRCHDU: Convergence failed at  30  side 1    Res =  0.3084E+02
 MRCHDU: Convergence failed at  31  side 1    Res =  0.2501E+02
 MRCHDU: Convergence failed at  32  side 1    Res =  0.2323E+02
 MRCHDU: Convergence failed at  33  side 1    Res =  0.2584E+02
 MRCHDU: Convergence failed at  34  side 1    Res =  0.5308E+02
 MRCHDU: Convergence failed at  35  side 1    Res =  0.2574E+02
 MRCHDU: Convergence failed at  36  side 1    Res =  0.2413E+02
 MRCHDU: Convergence failed at  37  side 1    Res =  0.2672E+02
 MRCHDU: Convergence failed at  38  side 1    Res =  0.3415E+02
 MRCHDU: Convergence failed at  39  side 1    Res =  0.3294E+02
 MRCHDU: Convergence failed at  40  side 1    Res =  0.3562E+02
 MRCHDU: Convergence failed at  41  side 1    Res =  0.3882E+02
 MRCHDU: Convergence failed at  42  side 1    Res =  0.3364E+02
 MRCHDU: Convergence failed at  43  side 1    Res =  0.3748E+02
 MRCHDU: Convergence failed at  44  side 1    Res =  0.3403E+02
 MRCHDU: Convergence failed at  45  side 1    Res =  0.3738E+02
 MRCHDU: Convergence failed at  46  side 1    Res =  0.2996E+02
 MRCHDU: Convergence failed at  47  side 1    Res =  0.3232E+02
 MRCHDU: Convergence failed at  48  side 1    Res =  0.3469E+02
 MRCHDU: Convergence failed at  49  side 1    Res =  0.3408E+02
 MRCHDU: Convergence failed at  50  side 1    Res =  0.3734E+02
 MRCHDU: Convergence failed at  51  side 1    Res =  0.3416E+02
 MRCHDU: Convergence failed at  52  side 1    Res =  0.4905E+02
 MRCHDU: Convergence failed at  53  side 1    Res =  0.5325E+02
 MRCHDU: Convergence failed at  54  side 1    Res =  0.5759E+02
 MRCHDU: Convergence failed at  55  side 1    Res =  0.4438E+02
 MRCHDU: Convergence failed at  56  side 1    Res =  0.4685E+02
 MRCHDU: Convergence failed at  57  side 1    Res =  0.4963E+02
 MRCHDU: Convergence failed at  58  side 1    Res =  0.5236E+02
 MRCHDU: Convergence failed at  59  side 1    Res =  0.5503E+02
 MRCHDU: Convergence failed at  60  side 1    Res =  0.6248E+02
 MRCHDU: Convergence failed at  61  side 1    Res =  0.5183E+02
 MRCHDU: Convergence failed at  62  side 1    Res =  0.5396E+02
 MRCHDU: Convergence failed at  63  side 1    Res =  0.5587E+02
 MRCHDU: Convergence failed at  64  side 1    Res =  0.5759E+02
 MRCHDU: Convergence failed at  65  side 1    Res =  0.5917E+02
 MRCHDU: Convergence failed at  66  side 1    Res =  0.6016E+02
 MRCHDU: Convergence failed at  67  side 1    Res =  0.6056E+02
 MRCHDU: Convergence failed at  68  side 1    Res =  0.1142E+03
 MRCHDU: Convergence failed at  69  side 1    Res =  0.4546E+02
 MRCHDU: Convergence failed at  70  side 1    Res =  0.7919E+02
 MRCHDU: Convergence failed at  71  side 1    Res =  0.1381E+03
 MRCHDU: Convergence failed at  72  side 1    Res =  0.1760E+03
 MRCHDU: Convergence failed at  73  side 1    Res =  0.2320E+03
 MRCHDU: Convergence failed at  74  side 1    Res =  0.1066E+03
 MRCHDU: Convergence failed at  75  side 1    Res =  0.1415E+03
 MRCHDU: Convergence failed at  76  side 1    Res =  0.1982E+03
 MRCHDU: Convergence failed at  77  side 1    Res =  0.3110E+03
 MRCHDU: Convergence failed at  78  side 1    Res =  0.6663E+03
 MRCHDU: Convergence failed at  79  side 1    Res =  0.3422E+03
 MRCHDU: Convergence failed at  80  side 1    Res =  0.1798E+03
 MRCHDU: Convergence failed at  81  side 1    Res =  0.1032E+03
 Side 1  free  transition at x/c =  0.0303   25
 Side 2 forced transition at x/c =  0.9999   63

   2   rms: 0.2385E+01   max: 0.1277E+02   D at   65  2   RLX: 0.045
       a =  7.500      CL =  3.9723
      Cm = -0.9540     CD =  0.00514   =>   CDf =  0.00196    CDp =  0.00317

 Side 1  free  transition at x/c =  0.0292   25
 Side 2 forced transition at x/c =  0.9999   63

   3   rms: 0.8129E+00   max: 0.1207E+01   D at   72  2   RLX: 0.179
       a =  7.500      CL =  2.7111
      Cm = -0.5801     CD =  0.05537   =>   CDf =  0.00289    CDp =  0.05248

 Side 1  free  transition at x/c =  0.0287   25
 Side 2 forced transition at x/c =  0.9999   63

   4   rms: 0.7013E+00   max: -.6240E+00   D at   64  2   RLX: 0.303
       a =  7.500      CL =  2.1397
      Cm = -0.3925     CD =  0.06084   =>   CDf =  0.00288    CDp =  0.05795

 Side 1  free  transition at x/c =  0.0289   25
 Side 2 forced transition at x/c =  0.9999   63
 idif Ue xi dudx           1  0.11857356      4.24361229E-03   27.941658    
 Uenew xinew           2  7.82096572E-03  2.79903412E-04

   5   rms: 0.5550E+00   max: 0.8094E+00   C at   63  2   RLX: 0.419
       a =  7.500      CL =  1.5855
      Cm = -0.2199     CD =  0.06433   =>   CDf =  0.00320    CDp =  0.06112

 Side 1  free  transition at x/c =  0.0302   24
 Side 2 forced transition at x/c =  0.9999   64

   6   rms: 0.4355E+00   max: 0.8340E+00   C at   64  2   RLX: 0.456
       a =  7.500      CL =  1.2644
      Cm = -0.1202     CD =  0.05761   =>   CDf =  0.00297    CDp =  0.05464

 Side 1  free  transition at x/c =  0.0338   25
 Side 2 forced transition at x/c =  0.9999   64

   7   rms: 0.7731E+00   max: -.2506E+01   D at   29  1   RLX: 0.200
       a =  7.500      CL =  1.1949
      Cm = -0.0706     CD =  0.04247   =>   CDf =  0.00404    CDp =  0.03842

 Side 1  free  transition at x/c =  0.0331   25
 Side 2 forced transition at x/c =  0.9999   63

   8   rms: 0.1358E+01   max: -.5156E+01   D at   51  1   RLX: 0.097
       a =  7.500      CL =  1.1778
      Cm = -0.0430     CD =  0.03396   =>   CDf =  0.00477    CDp =  0.02919

 Side 1  free  transition at x/c =  0.0312   25
 Side 2 forced transition at x/c =  0.9999   63

   9   rms: 0.1759E+01   max: -.6403E+01   D at   60  1   RLX: 0.078
       a =  7.500      CL =  1.2150
      Cm = -0.0320     CD =  0.02925   =>   CDf =  0.00506    CDp =  0.02419

 Side 1  free  transition at x/c =  0.0292   25
 Side 2 forced transition at x/c =  0.9999   63

  10   rms: 0.8947E+00   max: -.3246E+01   D at   68  1   RLX: 0.154
       a =  7.500      CL =  1.2376
      Cm = -0.0283     CD =  0.02560   =>   CDf =  0.00523    CDp =  0.02037

 Side 1  free  transition at x/c =  0.0281   26
 Side 2 forced transition at x/c =  0.9999   62

  11   rms: 0.4658E+00   max: 0.3031E+01   C at   62  2   RLX: 0.272
       a =  7.500      CL =  1.2227
      Cm = -0.0276     CD =  0.02474   =>   CDf =  0.00611    CDp =  0.01863

 Side 1  free  transition at x/c =  0.0277   25
 Side 2 forced transition at x/c =  0.9999   62
 idif Ue xi dudx           1  0.12226187      5.04076481E-03   24.254627    
 Uenew xinew           2  1.44453188E-02  5.95569611E-04

  12   rms: 0.2400E+00   max: 0.1107E+01   C at   62  2   RLX: 0.476
       a =  7.500      CL =  1.1634
      Cm = -0.0296     CD =  0.02467   =>   CDf =  0.00674    CDp =  0.01793

 Side 1  free  transition at x/c =  0.0281   25
 Side 2 forced transition at x/c =  0.9999   63

  13   rms: 0.1444E+00   max: -.6365E+00   C at   63  2   RLX: 0.786
       a =  7.500      CL =  1.0914
      Cm = -0.0320     CD =  0.02436   =>   CDf =  0.00675    CDp =  0.01761

 Side 1  free  transition at x/c =  0.0293   25
 Side 2 forced transition at x/c =  0.9999   63

  14   rms: 0.6483E-01   max: -.6529E+00   C at   63  2   RLX: 0.766
       a =  7.500      CL =  1.0721
      Cm = -0.0341     CD =  0.02583   =>   CDf =  0.00685    CDp =  0.01898

 Side 1  free  transition at x/c =  0.0293   25
 Side 2 forced transition at x/c =  0.9999   63

  15   rms: 0.2088E-01   max: -.2830E+00   C at   63  2
       a =  7.500      CL =  1.0640
      Cm = -0.0347     CD =  0.02622   =>   CDf =  0.00691    CDp =  0.01931
 VISCAL:  Convergence failed
 Calculating wake trajectory ...
 Calculating source influence matrix ...

 Solving BL system ...

 Side 1  free  transition at x/c =  0.0294   25
 Side 2 forced transition at x/c =  0.9999   63

   1   rms: 0.9270E-01   max: 0.5592E+00   T at   25  1
       a =  8.000      CL =  1.1077
      Cm = -0.0330     CD =  0.02872   =>   CDf =  0.00694    CDp =  0.02179

 Side 1  free  transition at x/c =  0.0272   24
 Side 2 forced transition at x/c =  0.9999   63

   2   rms: 0.2192E-01   max: 0.2263E+00   D at   25  1
       a =  8.000      CL =  1.1019
      Cm = -0.0325     CD =  0.03051   =>   CDf =  0.00636    CDp =  0.02415

 Side 1  free  transition at x/c =  0.0270   24
 Side 2 forced transition at x/c =  0.9999   63

   3   rms: 0.1017E-01   max: 0.5059E-01   D at   25  1
       a =  8.000      CL =  1.1021
      Cm = -0.0324     CD =  0.03048   =>   CDf =  0.00651    CDp =  0.02396

 Side 1  free  transition at x/c =  0.0269   24
 Side 2 forced transition at x/c =  0.9999   63

   4   rms: 0.2614E-03   max: 0.1595E-02   D at   26  1
       a =  8.000      CL =  1.1020
      Cm = -0.0324     CD =  0.03047   =>   CDf =  0.00646    CDp =  0.02402

 Side 1  free  transition at x/c =  0.0269   24
 Side 2 forced transition at x/c =  0.9999   63

   5   rms: 0.5468E-05   max: 0.1769E-04   D at   48  1
       a =  8.000      CL =  1.1020
      Cm = -0.0324     CD =  0.03047   =>   CDf =  0.00645    CDp =  0.02402
 Calculating wake trajectory ...
 Calculating source influence matrix ...

 Solving BL system ...

 Side 1  free  transition at x/c =  0.0269   24
 Side 2 forced transition at x/c =  0.9999   63

   1   rms: 0.1112E+00   max: 0.3815E+00   T at   24  1
       a =  8.500      CL =  1.1366
      Cm = -0.0295     CD =  0.03545   =>   CDf =  0.00608    CDp =  0.02937

 Side 1  free  transition at x/c =  0.0249   25
 Side 2 forced transition at x/c =  0.9999   62

   2   rms: 0.5611E-01   max: -.1536E+00   D at   82  1
       a =  8.500      CL =  1.1363
      Cm = -0.0299     CD =  0.03512   =>   CDf =  0.00525    CDp =  0.02987

 Side 1  free  transition at x/c =  0.0250   25
 Side 2 forced transition at x/c =  0.9999   62

   3   rms: 0.4683E-02   max: 0.1878E-01   D at   27  1
       a =  8.500      CL =  1.1330
      Cm = -0.0296     CD =  0.03553   =>   CDf =  0.00568    CDp =  0.02985

 Side 1  free  transition at x/c =  0.0251   25
 Side 2 forced transition at x/c =  0.9999   62

   4   rms: 0.1198E-03   max: -.4809E-03   D at   82  1
       a =  8.500      CL =  1.1330
      Cm = -0.0296     CD =  0.03553   =>   CDf =  0.00568    CDp =  0.02986

 Side 1  free  transition at x/c =  0.0251   25
 Side 2 forced transition at x/c =  0.9999   62

   5   rms: 0.2631E-05   max: -.8762E-05   D at   49  1
       a =  8.500      CL =  1.1330
      Cm = -0.0296     CD =  0.03553   =>   CDf =  0.00568    CDp =  0.02985
 Calculating wake trajectory ...
 Calculating source influence matrix ...

 Solving BL system ...

 Side 1  free  transition at x/c =  0.0251   25
 Side 2 forced transition at x/c =  0.9999   62

   1   rms: 0.8622E-01   max: 0.3693E+00   T at   25  1
       a =  9.000      CL =  1.1644
      Cm = -0.0272     CD =  0.03969   =>   CDf =  0.00568    CDp =  0.03401

 Side 1  free  transition at x/c =  0.0232   25
 Side 2 forced transition at x/c =  0.9999   62

   2   rms: 0.2164E+00   max: -.6462E+00   D at   70  1   RLX: 0.774
       a =  9.000      CL =  1.1909
      Cm = -0.0256     CD =  0.03898   =>   CDf =  0.00421    CDp =  0.03477

 Side 1  free  transition at x/c =  0.0230   24
 Side 2 forced transition at x/c =  0.9999   62

   3   rms: 0.9328E-01   max: 0.4894E+00   D at   25  1
       a =  9.000      CL =  1.1599
      Cm = -0.0277     CD =  0.04057   =>   CDf =  0.00554    CDp =  0.03504

 Side 1  free  transition at x/c =  0.0234   25
 Side 2 forced transition at x/c =  0.9999   62

   4   rms: 0.5761E-01   max: 0.1659E+00   D at   82  1
       a =  9.000      CL =  1.1652
      Cm = -0.0278     CD =  0.03974   =>   CDf =  0.00589    CDp =  0.03385

 Side 1  free  transition at x/c =  0.0233   25
 Side 2 forced transition at x/c =  0.9999   62

   5   rms: 0.8742E-02   max: -.3604E-01   D at   82  1
       a =  9.000      CL =  1.1627
      Cm = -0.0276     CD =  0.03968   =>   CDf =  0.00544    CDp =  0.03425

 Side 1  free  transition at x/c =  0.0233   25
 Side 2 forced transition at x/c =  0.9999   62

   6   rms: 0.4017E-03   max: -.2027E-02   D at   82  1
       a =  9.000      CL =  1.1625
      Cm = -0.0275     CD =  0.03971   =>   CDf =  0.00548    CDp =  0.03423

 Side 1  free  transition at x/c =  0.0233   25
 Side 2 forced transition at x/c =  0.9999   62

   7   rms: 0.6491E-05   max: -.2671E-04   D at   82  1
       a =  9.000      CL =  1.1625
      Cm = -0.0275     CD =  0.03971   =>   CDf =  0.00548    CDp =  0.03423
 Calculating wake trajectory ...
 Calculating source influence matrix ...

 Solving BL system ...

 Side 1  free  transition at x/c =  0.0233   25
 Side 2 forced transition at x/c =  0.9999   62

   1   rms: 0.1308E+00   max: 0.5070E+00   T at   25  1
       a =  9.500      CL =  1.1701
      Cm = -0.0244     CD =  0.04907   =>   CDf =  0.00549    CDp =  0.04358

 Side 1  free  transition at x/c =  0.0226   24
 Side 2 forced transition at x/c =  0.9999   62

   2   rms: 0.1596E+00   max: 0.6472E+00   D at   25  1
       a =  9.500      CL =  1.1703
      Cm = -0.0250     CD =  0.04904   =>   CDf =  0.00530    CDp =  0.04374

 Side 1  free  transition at x/c =  0.0225   24
 Side 2 forced transition at x/c =  0.9999   62

   3   rms: 0.6513E-01   max: 0.1770E+00   D at   77  1
       a =  9.500      CL =  1.1609
      Cm = -0.0240     CD =  0.04841   =>   CDf =  0.00484    CDp =  0.04357

 Side 1  free  transition at x/c =  0.0226   24
 Side 2 forced transition at x/c =  0.9999   62

   4   rms: 0.7149E-02   max: -.2685E-01   D at   76  1
       a =  9.500      CL =  1.1568
      Cm = -0.0239     CD =  0.04831   =>   CDf =  0.00434    CDp =  0.04397

 Side 1  free  transition at x/c =  0.0227   24
 Side 2 forced transition at x/c =  0.9999   62

   5   rms: 0.8002E-04   max: 0.7384E-03   D at   24  1
       a =  9.500      CL =  1.1569
      Cm = -0.0239     CD =  0.04834   =>   CDf =  0.00440    CDp =  0.04394
 Calculating wake trajectory ...
 Calculating source influence matrix ...

 Solving BL system ...

 Side 1  free  transition at x/c =  0.0227   24
 Side 2 forced transition at x/c =  0.9999   62

   1   rms: 0.1270E+00   max: 0.3984E+00   D at   70  1
       a = 10.000      CL =  1.1373
      Cm = -0.0206     CD =  0.05879   =>   CDf =  0.00441    CDp =  0.05438

 Side 1  free  transition at x/c =  0.0226   24
 Side 2 forced transition at x/c =  0.9999   62

   2   rms: 0.4175E-01   max: -.1271E+00   D at   50  1
       a = 10.000      CL =  1.1216
      Cm = -0.0203     CD =  0.05705   =>   CDf =  0.00343    CDp =  0.05362

 Side 1  free  transition at x/c =  0.0227   24
 Side 2 forced transition at x/c =  0.9999   62

   3   rms: 0.4456E-02   max: -.3446E-01   C at   62  2
       a = 10.000      CL =  1.1216
      Cm = -0.0211     CD =  0.05805   =>   CDf =  0.00369    CDp =  0.05436

 Side 1  free  transition at x/c =  0.0227   24
 Side 2 forced transition at x/c =  0.9999   62

   4   rms: 0.2413E-03   max: -.8551E-03   D at   62  1
       a = 10.000      CL =  1.1215
      Cm = -0.0211     CD =  0.05805   =>   CDf =  0.00369    CDp =  0.05436

 Side 1  free  transition at x/c =  0.0227   24
 Side 2 forced transition at x/c =  0.9999   62

   5   rms: 0.1364E-04   max: 0.4162E-04   D at   33  1
       a = 10.000      CL =  1.1215
      Cm = -0.0211     CD =  0.05805   =>   CDf =  0.00369    CDp =  0.05436

.OPERv   c>  
 Solving BL system ...

 Side 1  free  transition at x/c =  0.0227   24
 Side 2 forced transition at x/c =  0.9999   62

   1   rms: 0.1240E-05   max: -.8749E-05   C at   62  2
       a = 10.000      CL =  1.1215
      Cm = -0.0211     CD =  0.05805   =>   CDf =  0.00369    CDp =  0.05436

.OPERv   c>  
.OPERv   c>  
Enter flap hinge x location   r>  
  Top    surface:  y =  0.0160     y/t = 1.0
  Bottom surface:  y = -0.0160     y/t = 0.0

Enter flap hinge y location (or 999 to specify y/t)   r>  
 Flap hinge x,y :  0.7000  0.0000
                                           2  2
 Hinge moment/span = 0.011636  x  1/2 rho V  c 
                                           2   
 x-Force     /span = 0.004498  x  1/2 rho V  c 
                                           2   
 y-Force     /span = 0.110208  x  1/2 rho V  c 


.OPERv   c>  
 Solving BL system ...

 Side 1  free  transition at x/c =  0.0227   24
 Side 2 forced transition at x/c =  0.9999   62

   1   rms: 0.5583E-06   max: -.2101E-05   C at   62  2
       a = 10.000      CL =  1.1215
      Cm = -0.0211     CD =  0.05805   =>   CDf =  0.00369    CDp =  0.05436
 Calculating wake trajectory ...
 Calculating source influence matrix ...

 Solving BL system ...

 Side 1  free  transition at x/c =  0.0227   24
 Side 2 forced transition at x/c =  0.9999   62

   1   rms: 0.1162E+00   max: 0.3887E+00   D at   70  1
       a = 10.500      CL =  1.0771
      Cm = -0.0206     CD =  0.06911   =>   CDf =  0.00370    CDp =  0.06541

 Side 1  free  transition at x/c =  0.0229   24
 Side 2 forced transition at x/c =  0.9999   62

   2   rms: 0.3499E-01   max: 0.1816E+00   D at   72  1
       a = 10.500      CL =  1.0744
      Cm = -0.0277     CD =  0.07139   =>   CDf =  0.00332    CDp =  0.06807

 Side 1  free  transition at x/c =  0.0230   24
 Side 2 forced transition at x/c =  0.9999   62

   3   rms: 0.1128E-01   max: 0.5535E-01   D at   65  1
       a = 10.500      CL =  1.0757
      Cm = -0.0298     CD =  0.07195   =>   CDf =  0.00331    CDp =  0.06864

 Side 1  free  transition at x/c =  0.0230   24
 Side 2 forced transition at x/c =  0.9999   62

   4   rms: 0.8119E-03   max: -.3771E-02   D at   64  1
       a = 10.500      CL =  1.0755
      Cm = -0.0296     CD =  0.07157   =>   CDf =  0.00329    CDp =  0.06828

 Side 1  free  transition at x/c =  0.0230   24
 Side 2 forced transition at x/c =  0.9999   62

   5   rms: 0.7639E-04   max: 0.2626E-03   D at   40  1
       a = 10.500      CL =  1.0755
      Cm = -0.0296     CD =  0.07159   =>   CDf =  0.00329    CDp =  0.06830
 Calculating wake trajectory ...
 Calculating source influence matrix ...

 Solving BL system ...

 Side 1  free  transition at x/c =  0.0230   24
 Side 2 forced transition at x/c =  0.9999   62

   1   rms: 0.2002E+00   max: 0.6114E+00   D at   57  1   RLX: 0.920
       a = 11.000      CL =  1.0435
      Cm = -0.0540     CD =  0.09710   =>   CDf =  0.00330    CDp =  0.09380

 Side 1  free  transition at x/c =  0.0235   25
 Side 2 forced transition at x/c =  0.9999   62

   2   rms: 0.4544E+00   max: 0.1578E+01   T at   25  1   RLX: 0.951
       a = 11.000      CL =  1.2170
      Cm = -0.0109     CD =  0.06906   =>   CDf =  0.00378    CDp =  0.06528

 MRCHDU: Convergence failed at  26  side 1    Res =  0.4685E+03
 MRCHDU: Convergence failed at  27  side 1    Res =  0.4052E+03
 MRCHDU: Convergence failed at  28  side 1    Res =  0.5339E+02
 MRCHDU: Convergence failed at  29  side 1    Res =  0.7222E+02
 MRCHDU: Convergence failed at  30  side 1    Res =  0.4797E+02
 MRCHDU: Convergence failed at  31  side 1    Res =  0.2699E+03
 MRCHDU: Convergence failed at  32  side 1    Res =  0.2118E+03
 MRCHDU: Convergence failed at  33  side 1    Res =  0.7817E+03
 MRCHDU: Convergence failed at  34  side 1    Res =  0.9979E+02
 MRCHDU: Convergence failed at  35  side 1    Res =  0.8870E+02
 MRCHDU: Convergence failed at  36  side 1    Res =  0.1054E+03
 MRCHDU: Convergence failed at  37  side 1    Res =  0.1247E+03
 MRCHDU: Convergence failed at  38  side 1    Res =  0.8115E+02
 MRCHDU: Convergence failed at  39  side 1    Res =  0.9664E+02
 MRCHDU: Convergence failed at  40  side 1    Res =  0.5182E+02
 MRCHDU: Convergence failed at  41  side 1    Res =  0.5328E+02
 MRCHDU: Convergence failed at  42  side 1    Res =  0.5776E+02
 MRCHDU: Convergence failed at  43  side 1    Res =  0.6264E+02
 MRCHDU: Convergence failed at  44  side 1    Res =  0.6701E+02
 MRCHDU: Convergence failed at  45  side 1    Res =  0.7090E+02
 MRCHDU: Convergence failed at  46  side 1    Res =  0.6980E+02
 MRCHDU: Convergence failed at  47  side 1    Res =  0.7562E+02
 MRCHDU: Convergence failed at  48  side 1    Res =  0.8224E+02
 MRCHDU: Convergence failed at  49  side 1    Res =  0.8952E+02
 MRCHDU: Convergence failed at  50  side 1    Res =  0.4334E+03
 MRCHDU: Convergence failed at  51  side 1    Res =  0.3719E+03
 MRCHDU: Convergence failed at  52  side 1    Res =  0.3311E+03
 MRCHDU: Convergence failed at  53  side 1    Res =  0.3042E+03
 MRCHDU: Convergence failed at  54  side 1    Res =  0.2867E+03
 MRCHDU: Convergence failed at  55  side 1    Res =  0.8354E+02
 MRCHDU: Convergence failed at  56  side 1    Res =  0.4681E+03
 MRCHDU: Convergence failed at  57  side 1    Res =  0.6986E+03
 MRCHDU: Convergence failed at  58  side 1    Res =  0.5269E+03
 MRCHDU: Convergence failed at  59  side 1    Res =  0.5256E+03
 MRCHDU: Convergence failed at  60  side 1    Res =  0.3966E+03
 MRCHDU: Convergence failed at  61  side 1    Res =  0.3702E+03
 MRCHDU: Convergence failed at  62  side 1    Res =  0.3480E+03
 MRCHDU: Convergence failed at  63  side 1    Res =  0.1712E+04
 MRCHDU: Convergence failed at  64  side 1    Res =  0.3183E+03
 MRCHDU: Convergence failed at  65  side 1    Res =  0.3024E+03
 MRCHDU: Convergence failed at  66  side 1    Res =  0.2890E+03
 MRCHDU: Convergence failed at  67  side 1    Res =  0.2775E+03
 MRCHDU: Convergence failed at  68  side 1    Res =  0.2675E+03
 MRCHDU: Convergence failed at  69  side 1    Res =  0.2587E+03
 MRCHDU: Convergence failed at  70  side 1    Res =  0.2512E+03
 MRCHDU: Convergence failed at  71  side 1    Res =  0.2570E+03
 MRCHDU: Convergence failed at  72  side 1    Res =  0.2350E+03
 MRCHDU: Convergence failed at  73  side 1    Res =  0.2344E+03
 MRCHDU: Convergence failed at  74  side 1    Res =  0.2304E+03
 MRCHDU: Convergence failed at  75  side 1    Res =  0.2277E+03
 MRCHDU: Convergence failed at  76  side 1    Res =  0.2237E+03
 MRCHDU: Convergence failed at  77  side 1    Res =  0.2199E+03
 MRCHDU: Convergence failed at  78  side 1    Res =  0.2158E+03
 MRCHDU: Convergence failed at  79  side 1    Res =  0.2099E+03
 MRCHDU: Convergence failed at  80  side 1    Res =  0.2017E+03
 MRCHDU: Convergence failed at  81  side 1    Res =  0.1914E+03
 MRCHDU: Convergence failed at  82  side 1    Res =  0.1811E+03
 MRCHDU: Convergence failed at  83  side 1    Res =  0.1637E+03
 Side 1  free  transition at x/c =  0.0228   25
 Side 2 forced transition at x/c =  0.9999   61

   3   rms: 0.3933E+01   max: 0.2178E+02   D at   64  2   RLX: 0.025
       a = 11.000      CL =  5.9660
      Cm = -1.4732     CD =  0.00425   =>   CDf =  0.00123    CDp =  0.00302

 Side 1  free  transition at x/c =  0.0234   26
[...]
 MRCHDU: Convergence failed at  38  side 1    Res =  0.9970E+02
 MRCHDU: Convergence failed at  39  side 1    Res =  0.9271E+02
 MRCHDU: Convergence failed at  40  side 1    Res =  0.5304E+03
 MRCHDU: Convergence failed at  41  side 1    Res =  0.7856E+02
 MRCHDU: Convergence failed at  42  side 1    Res =  0.2045E+03
 MRCHDU: Convergence failed at  43  side 1    Res =  0.1612E+04
 MRCHDU: Convergence failed at  44  side 1    Res =  0.6399E+02
 MRCHDU: Convergence failed at  45  side 1    Res =  0.2121E+03
 MRCHDU: Convergence failed at  46  side 1    Res =  0.2002E+03
 MRCHDU: Convergence failed at  47  side 1    Res =  0.6502E+02
 MRCHDU: Convergence failed at  48  side 1    Res =  0.5551E+03
 MRCHDU: Convergence failed at  49  side 1    Res =  0.8839E+03
 MRCHDU: Convergence failed at  50  side 1    Res =  0.2324E+03
 MRCHDU: Convergence failed at  51  side 1    Res =  0.2038E+03
 MRCHDU: Convergence failed at  52  side 1    Res =  0.2511E+05
 MRCHDU: Convergence failed at  53  side 1    Res =  0.1754E+03
 MRCHDU: Convergence failed at  54  side 1    Res =  0.3312E+03
 MRCHDU: Convergence failed at  55  side 1    Res =  0.6871E+03
 MRCHDU: Convergence failed at  56  side 1    Res =  0.2080E+03
 MRCHDU: Convergence failed at  57  side 1    Res =  0.2627E+03
 MRCHDU: Convergence failed at  58  side 1    Res =  0.6153E+02
 MRCHDU: Convergence failed at  59  side 1    Res =  0.8365E+02
 MRCHDU: Convergence failed at  60  side 1    Res =  0.8576E+02
 MRCHDU: Convergence failed at  61  side 1    Res =  0.7746E+02
 MRCHDU: Convergence failed at  62  side 1    Res =  0.1974E+03
 MRCHDU: Convergence failed at  63  side 1    Res =  0.1099E+03
 MRCHDU: Convergence failed at  64  side 1    Res =  0.1801E+03
 MRCHDU: Convergence failed at  65  side 1    Res =  0.7821E+02
 MRCHDU: Convergence failed at  66  side 1    Res =  0.1950E+03
 MRCHDU: Convergence failed at  67  side 1    Res =  0.1846E+03
 MRCHDU: Convergence failed at  68  side 1    Res =  0.1886E+03
 MRCHDU: Convergence failed at  69  side 1    Res =  0.1890E+03
 MRCHDU: Convergence failed at  70  side 1    Res =  0.1899E+03
 MRCHDU: Convergence failed at  71  side 1    Res =  0.2070E+03
 MRCHDU: Convergence failed at  72  side 1    Res =  0.2643E+03
 MRCHDU: Convergence failed at  73  side 1    Res =  0.9895E+02
 MRCHDU: Convergence failed at  74  side 1    Res =  0.7980E+02
 MRCHDU: Convergence failed at  75  side 1    Res =  0.5766E+03
 MRCHDU: Convergence failed at  76  side 1    Res =  0.1760E+03
 MRCHDU: Convergence failed at  77  side 1    Res =  0.1426E+04
 MRCHDU: Convergence failed at  78  side 1    Res =  0.1055E+05
 MRCHDU: Convergence failed at  79  side 1    Res =  0.3152E+03
 MRCHDU: Convergence failed at  80  side 1    Res =  0.2337E+03
 MRCHDU: Convergence failed at  77  side 2    Res =  0.1716E+02
 MRCHDU: Convergence failed at  78  side 2    Res =  0.3510E+01
 MRCHDU: Convergence failed at  79  side 2    Res =  0.2593E+01
 MRCHDU: Convergence failed at  80  side 2    Res =  0.3631E+01
 MRCHDU: Convergence failed at  81  side 2    Res =  0.2192E+01
 Side 1  free  transition at x/c =  0.0545   27
 Side 2 forced transition at x/c =  0.9999   64

   5   rms: 0.1696E+01   max: 0.1028E+02   D at   75  2   RLX: 0.090
       a = 12.000      CL =  2.4848
      Cm = -0.5706     CD =  0.03598   =>   CDf =  0.00270    CDp =  0.03328

 MRCHDU: Convergence failed at  75  side 2    Res =  0.3921E+01
 Side 1  free  transition at x/c =  0.0608   28
 Side 2 forced transition at x/c =  0.9999   64

   6   rms: 0.8233E+00   max: -.8472E+01   T at   28  1   RLX: 0.059
       a = 12.000      CL =  2.1291
      Cm = -0.4496     CD =  0.21737   =>   CDf =  0.00326    CDp =  0.21412

 Side 1  free  transition at x/c =  0.0587   28
 Side 2 forced transition at x/c =  0.9999   64

   7   rms: 0.6746E+00   max: 0.3068E+01   C at   64  2   RLX: 0.233
       a = 12.000      CL =  1.9111
      Cm = -0.3913     CD =  0.19584   =>   CDf =  0.00331    CDp =  0.19253

 MRCHDU: Convergence failed at  80  side 2    Res =  0.1551E+01
 MRCHDU: Convergence failed at  81  side 2    Res =  0.5511E+01
 MRCHDU: Convergence failed at  82  side 2    Res =  0.3003E+01
 Side 1  free  transition at x/c =  0.0503   27
 Side 2 forced transition at x/c =  0.9999   64
 idif Ue xi dudx           1  0.13226508      4.41515446E-03   29.957067    
 Uenew xinew           2  2.55159438E-02  8.51750374E-04

   8   rms: 0.1096E+01   max: 0.3727E+01   C at   64  2   RLX: 0.178
       a = 12.000      CL =  1.5302
      Cm = -0.3043     CD =  0.25858   =>   CDf =  0.00370    CDp =  0.25487

 Side 1  free  transition at x/c =  0.0511   26
 Side 2 forced transition at x/c =  0.9999   65

   9   rms: 0.7342E+00   max: 0.3446E+01   C at   65  2   RLX: 0.190
       a = 12.000      CL =  1.3103
      Cm = -0.2522     CD =  0.28426   =>   CDf =  0.00341    CDp =  0.28085

 Side 1  free  transition at x/c =  0.0513   26
 Side 2 forced transition at x/c =  0.9999   65
 idif Ue xi dudx           1  0.12356802      3.73136997E-03   33.115993    
 Uenew xinew           2  1.65883787E-02  5.00917435E-04

  10   rms: 0.6949E+00   max: 0.4150E+01   C at   65  2   RLX: 0.240
       a = 12.000      CL =  1.0635
      Cm = -0.1948     CD =  0.35479   =>   CDf =  0.00356    CDp =  0.35123

 Side 1  free  transition at x/c =  0.0520   25
 Side 2 forced transition at x/c =  0.9999   66

  11   rms: 0.5523E+00   max: 0.4441E+01   C at   66  2   RLX: 0.267
       a = 12.000      CL =  0.8812
      Cm = -0.1509     CD =  0.48869   =>   CDf =  0.00334    CDp =  0.48535

 Side 1  free  transition at x/c =  0.0527   25
 Side 2 forced transition at x/c =  0.9999   66

  12   rms: 0.4525E+00   max: 0.4291E+01   C at   66  2   RLX: 0.310
       a = 12.000      CL =  0.7396
      Cm = -0.1158     CD =  0.67314   =>   CDf =  0.00329    CDp =  0.66984

 Side 1  free  transition at x/c =  0.0536   25
 Side 2 forced transition at x/c =  0.9999   66

  13   rms: 0.3608E+00   max: 0.3474E+01   C at   66  2   RLX: 0.404
       a = 12.000      CL =  0.6271
      Cm = -0.0861     CD =  0.73420   =>   CDf =  0.00324    CDp =  0.73096

 Side 1  free  transition at x/c =  0.0544   25
 Side 2 forced transition at x/c =  0.9999   66

  14   rms: 0.2815E+00   max: 0.2417E+01   C at   66  2   RLX: 0.569
       a = 12.000      CL =  0.5598
      Cm = -0.0630     CD =  0.46745   =>   CDf =  0.00318    CDp =  0.46427

 Side 1  free  transition at x/c =  0.0550   25
 Side 2 forced transition at x/c =  0.9999   66

  15   rms: 0.2097E+00   max: 0.1395E+01   C at   66  2   RLX: 0.575
       a = 12.000      CL =  0.5547
      Cm = -0.0519     CD =  0.29749   =>   CDf =  0.00311    CDp =  0.29439
 VISCAL:  Convergence failed
 Calculating wake trajectory ...
 Calculating source influence matrix ...

 Solving BL system ...

 Side 1  free  transition at x/c =  0.0540   25
 Side 2 forced transition at x/c =  0.9999   66

   1   rms: 0.1599E+00   max: 0.1206E+01   T at   25  1   RLX: 0.435
       a = 12.500      CL =  0.5633
      Cm = -0.0509     CD =  0.23618   =>   CDf =  0.00304    CDp =  0.23314

 Side 1  free  transition at x/c =  0.0494   25
 Side 2 forced transition at x/c =  0.9999   66

   2   rms: 0.1283E+00   max: 0.7774E+00   T at   25  1   RLX: 0.725
       a = 12.500      CL =  0.6145
      Cm = -0.0593     CD =  0.17593   =>   CDf =  0.00300    CDp =  0.17292

 Side 1  free  transition at x/c =  0.0473   25
 Side 2 forced transition at x/c =  0.9999   66

   3   rms: 0.1017E+00   max: -.4779E+00   D at   25  1
       a = 12.500      CL =  0.6204
      Cm = -0.0559     CD =  0.14917   =>   CDf =  0.00284    CDp =  0.14634

 Side 1  free  transition at x/c =  0.0474   26
 Side 2 forced transition at x/c =  0.9999   65

   4   rms: 0.6763E-01   max: 0.2192E+00   T at   26  1
       a = 12.500      CL =  0.6467
      Cm = -0.0530     CD =  0.14690   =>   CDf =  0.00290    CDp =  0.14400

 Side 1  free  transition at x/c =  0.0469   25
 Side 2 forced transition at x/c =  0.9999   65

   5   rms: 0.1504E-01   max: 0.4040E-01   D at   30  1
       a = 12.500      CL =  0.6461
      Cm = -0.0537     CD =  0.14886   =>   CDf =  0.00286    CDp =  0.14600

 Side 1  free  transition at x/c =  0.0469   25
 Side 2 forced transition at x/c =  0.9999   65

   6   rms: 0.1395E-02   max: 0.5241E-02   D at   82  2
       a = 12.500      CL =  0.6455
      Cm = -0.0535     CD =  0.14800   =>   CDf =  0.00286    CDp =  0.14513

 Side 1  free  transition at x/c =  0.0470   25
 Side 2 forced transition at x/c =  0.9999   65

   7   rms: 0.1265E-03   max: 0.6102E-03   D at   26  1
       a = 12.500      CL =  0.6456
      Cm = -0.0535     CD =  0.14804   =>   CDf =  0.00286    CDp =  0.14517

 Side 1  free  transition at x/c =  0.0470   25
 Side 2 forced transition at x/c =  0.9999   65

   8   rms: 0.2187E-04   max: 0.7758E-04   T at   27  1
       a = 12.500      CL =  0.6456
      Cm = -0.0535     CD =  0.14803   =>   CDf =  0.00286    CDp =  0.14517
 plradd ia,ip,cpol           20           0  1.01799995E-03

 Point added to stored polar  1
 Save file unspecified or not available
 Dump file unspecified or not available
 Calculating wake trajectory ...
 Calculating source influence matrix ...

 Solving BL system ...

 Side 1  free  transition at x/c =  0.0470   25
 Side 2 forced transition at x/c =  0.9999   65

   1   rms: 0.7335E-01   max: -.2034E+00   T at   29  1   RLX: 0.425
       a = 13.000      CL =  0.6398
      Cm = -0.0561     CD =  0.15315   =>   CDf =  0.00286    CDp =  0.15029

 Side 1  free  transition at x/c =  0.0465   25
 Side 2 forced transition at x/c =  0.9999   65

   2   rms: 0.7527E-01   max: 0.3242E+00   D at   26  1
       a = 13.000      CL =  0.6323
      Cm = -0.0608     CD =  0.16301   =>   CDf =  0.00287    CDp =  0.16015

 Side 1  free  transition at x/c =  0.0441   25
 Side 2 forced transition at x/c =  0.9999   65

   3   rms: 0.4753E-01   max: -.2583E+00   D at   25  1
       a = 13.000      CL =  0.6217
      Cm = -0.0618     CD =  0.16051   =>   CDf =  0.00287    CDp =  0.15764

 Side 1  free  transition at x/c =  0.0446   25
 Side 2 forced transition at x/c =  0.9999   65

   4   rms: 0.8148E-02   max: -.6602E-01   T at   25  1
       a = 13.000      CL =  0.6199
      Cm = -0.0610     CD =  0.15498   =>   CDf =  0.00288    CDp =  0.15210

 Side 1  free  transition at x/c =  0.0450   25
 Side 2 forced transition at x/c =  0.9999   65

   5   rms: 0.9932E-03   max: -.5911E-02   D at   26  1
       a = 13.000      CL =  0.6199
      Cm = -0.0610     CD =  0.15457   =>   CDf =  0.00289    CDp =  0.15168

 Side 1  free  transition at x/c =  0.0451   25
 Side 2 forced transition at x/c =  0.9999   65

   6   rms: 0.2334E-03   max: 0.2833E-02   T at   25  1
       a = 13.000      CL =  0.6200
      Cm = -0.0610     CD =  0.15466   =>   CDf =  0.00289    CDp =  0.15177

 Side 1  free  transition at x/c =  0.0450   25
 Side 2 forced transition at x/c =  0.9999   65

   7   rms: 0.5778E-05   max: -.5137E-04   D at   83  2
       a = 13.000      CL =  0.6200
      Cm = -0.0610     CD =  0.15467   =>   CDf =  0.00289    CDp =  0.15178
 plradd ia,ip,cpol           21           0  1.01799995E-03

 Point added to stored polar  1
 Save file unspecified or not available
 Dump file unspecified or not available
 Calculating wake trajectory ...
 Calculating source influence matrix ...

 Solving BL system ...

 Side 1  free  transition at x/c =  0.0450   25
 Side 2 forced transition at x/c =  0.9999   65

   1   rms: 0.8859E-01   max: 0.1259E+01   T at   25  1   RLX: 0.400
       a = 13.500      CL =  0.6183
      Cm = -0.0631     CD =  0.15888   =>   CDf =  0.00289    CDp =  0.15599

 Side 1  free  transition at x/c =  0.0428   25
 Side 2 forced transition at x/c =  0.9999   65

   2   rms: 0.2983E-01   max: 0.3693E+00   T at   25  1
       a = 13.500      CL =  0.6223
      Cm = -0.0632     CD =  0.15892   =>   CDf =  0.00289    CDp =  0.15603

 Side 1  free  transition at x/c =  0.0411   25
 Side 2 forced transition at x/c =  0.9999   65

   3   rms: 0.1493E-01   max: -.8759E-01   D at   26  1
       a = 13.500      CL =  0.6243
      Cm = -0.0628     CD =  0.15843   =>   CDf =  0.00289    CDp =  0.15554

 Side 1  free  transition at x/c =  0.0412   25
 Side 2 forced transition at x/c =  0.9999   65

   4   rms: 0.5000E-02   max: 0.2375E-01   T at   25  1
       a = 13.500      CL =  0.6269
      Cm = -0.0628     CD =  0.15978   =>   CDf =  0.00289    CDp =  0.15690

 Side 1  free  transition at x/c =  0.0412   25
 Side 2 forced transition at x/c =  0.9999   65

   5   rms: 0.3160E-03   max: 0.2007E-02   T at   25  1
       a = 13.500      CL =  0.6271
      Cm = -0.0629     CD =  0.16000   =>   CDf =  0.00288    CDp =  0.15712

 Side 1  free  transition at x/c =  0.0411   25
 Side 2 forced transition at x/c =  0.9999   65

   6   rms: 0.5094E-05   max: 0.3867E-04   D at   52  2
       a = 13.500      CL =  0.6271
      Cm = -0.0629     CD =  0.16001   =>   CDf =  0.00288    CDp =  0.15712
 plradd ia,ip,cpol           22           0  1.01799995E-03

 Point added to stored polar  1
 Save file unspecified or not available
 Dump file unspecified or not available
 Calculating wake trajectory ...
 Calculating source influence matrix ...

 Solving BL system ...

 Side 1  free  transition at x/c =  0.0411   25
 Side 2 forced transition at x/c =  0.9999   65

   1   rms: 0.6199E-01   max: 0.6959E+00   T at   25  1   RLX: 0.391
       a = 14.000      CL =  0.6322
      Cm = -0.0630     CD =  0.16232   =>   CDf =  0.00288    CDp =  0.15944

 Side 1  free  transition at x/c =  0.0404   25
 Side 2 forced transition at x/c =  0.9999   65

   2   rms: 0.5286E-01   max: 0.4365E+00   T at   25  1
       a = 14.000      CL =  0.6454
      Cm = -0.0623     CD =  0.16482   =>   CDf =  0.00288    CDp =  0.16194

 Side 1  free  transition at x/c =  0.0396   24
 Side 2 forced transition at x/c =  0.9999   65

   3   rms: 0.6517E-01   max: -.2945E+00   D at   25  1
       a = 14.000      CL =  0.6476
      Cm = -0.0606     CD =  0.15949   =>   CDf =  0.00274    CDp =  0.15675

 Side 1  free  transition at x/c =  0.0396   25
 Side 2 forced transition at x/c =  0.9999   64

   4   rms: 0.2480E-01   max: 0.1056E+00   D at   26  1
       a = 14.000      CL =  0.6551
      Cm = -0.0614     CD =  0.16961   =>   CDf =  0.00288    CDp =  0.16673

 Side 1  free  transition at x/c =  0.0396   25
 Side 2 forced transition at x/c =  0.9999   64

   5   rms: 0.7575E-02   max: 0.2499E-01   D at   26  1
       a = 14.000      CL =  0.6535
      Cm = -0.0612     CD =  0.16771   =>   CDf =  0.00287    CDp =  0.16485

 Side 1  free  transition at x/c =  0.0396   25
 Side 2 forced transition at x/c =  0.9999   64

   6   rms: 0.8608E-03   max: 0.5390E-02   D at   81  2
       a = 14.000      CL =  0.6531
      Cm = -0.0611     CD =  0.16697   =>   CDf =  0.00287    CDp =  0.16410

 Side 1  free  transition at x/c =  0.0396   25
 Side 2 forced transition at x/c =  0.9999   64

   7   rms: 0.2678E-04   max: 0.1606E-03   D at   82  2
       a = 14.000      CL =  0.6531
      Cm = -0.0611     CD =  0.16695   =>   CDf =  0.00287    CDp =  0.16408
 plradd ia,ip,cpol           23           0  1.01799995E-03

 Point added to stored polar  1
 Save file unspecified or not available
 Dump file unspecified or not available
 Calculating wake trajectory ...
 Calculating source influence matrix ...

 Solving BL system ...

 Side 1  free  transition at x/c =  0.0396   25
 Side 2 forced transition at x/c =  0.9999   64

   1   rms: 0.6129E-01   max: -.1987E+00   T at   28  1   RLX: 0.376
       a = 14.500      CL =  0.6501
      Cm = -0.0631     CD =  0.17087   =>   CDf =  0.00287    CDp =  0.16801

 Side 1  free  transition at x/c =  0.0394   25
 Side 2 forced transition at x/c =  0.9999   64
 idif Ue xi dudx           1  9.99501497E-02  3.71396542E-03   26.911976    
 Uenew xinew           2  4.05190280E-03  1.50561333E-04

   2   rms: 0.6275E-01   max: 0.2154E+00   D at   26  1
       a = 14.500      CL =  0.6443
      Cm = -0.0675     CD =  0.17987   =>   CDf =  0.00299    CDp =  0.17688

 Side 1  free  transition at x/c =  0.0379   24
 Side 2 forced transition at x/c =  0.9999   65

   3   rms: 0.4653E-01   max: 0.2606E+00   D at   25  1
       a = 14.500      CL =  0.6385
      Cm = -0.0686     CD =  0.17857   =>   CDf =  0.00288    CDp =  0.17569

 Side 1  free  transition at x/c =  0.0379   24
 Side 2 forced transition at x/c =  0.9999   65

   4   rms: 0.9110E-02   max: -.4444E-01   T at   24  1
       a = 14.500      CL =  0.6357
      Cm = -0.0680     CD =  0.17361   =>   CDf =  0.00289    CDp =  0.17072

 Side 1  free  transition at x/c =  0.0381   24
 Side 2 forced transition at x/c =  0.9999   65

   5   rms: 0.1268E-02   max: -.1222E-01   T at   24  1
       a = 14.500      CL =  0.6353
      Cm = -0.0680     CD =  0.17265   =>   CDf =  0.00289    CDp =  0.16975

 Side 1  free  transition at x/c =  0.0382   24
 Side 2 forced transition at x/c =  0.9999   65

   6   rms: 0.1256E-03   max: 0.8586E-03   T at   24  1
       a = 14.500      CL =  0.6354
      Cm = -0.0680     CD =  0.17266   =>   CDf =  0.00289    CDp =  0.16977

 Side 1  free  transition at x/c =  0.0382   24
 Side 2 forced transition at x/c =  0.9999   65

   7   rms: 0.1372E-04   max: 0.1134E-03   T at   24  1
       a = 14.500      CL =  0.6354
      Cm = -0.0680     CD =  0.17267   =>   CDf =  0.00289    CDp =  0.16978
 plradd ia,ip,cpol           24           0  3.21000000E-04

 Point added to stored polar  1
 Save file unspecified or not available
 Dump file unspecified or not available
 Calculating wake trajectory ...
 Calculating source influence matrix ...

 Solving BL system ...

 Side 1  free  transition at x/c =  0.0382   24
 Side 2 forced transition at x/c =  0.9999   65

   1   rms: 0.7939E-01   max: 0.1024E+01   T at   24  1   RLX: 0.358
       a = 15.000      CL =  0.6353
      Cm = -0.0696     CD =  0.17646   =>   CDf =  0.00289    CDp =  0.17357

 Side 1  free  transition at x/c =  0.0368   24
 Side 2 forced transition at x/c =  0.9999   65

   2   rms: 0.2055E-01   max: 0.2978E+00   T at   24  1
       a = 15.000      CL =  0.6400
      Cm = -0.0706     CD =  0.17846   =>   CDf =  0.00276    CDp =  0.17570

 Side 1  free  transition at x/c =  0.0354   25
 Side 2 forced transition at x/c =  0.9999   64

   3   rms: 0.7916E-02   max: -.5468E-01   D at   26  1
       a = 15.000      CL =  0.6404
      Cm = -0.0704     CD =  0.17764   =>   CDf =  0.00288    CDp =  0.17476

 Side 1  free  transition at x/c =  0.0356   25
 Side 2 forced transition at x/c =  0.9999   64

   4   rms: 0.1886E-02   max: -.7487E-02   D at   81  2
       a = 15.000      CL =  0.6414
      Cm = -0.0705     CD =  0.17843   =>   CDf =  0.00288    CDp =  0.17555

 Side 1  free  transition at x/c =  0.0355   25
 Side 2 forced transition at x/c =  0.9999   64

   5   rms: 0.1280E-03   max: -.1083E-02   D at   81  2
       a = 15.000      CL =  0.6414
      Cm = -0.0705     CD =  0.17857   =>   CDf =  0.00288    CDp =  0.17569

 Side 1  free  transition at x/c =  0.0355   25
 Side 2 forced transition at x/c =  0.9999   64

   6   rms: 0.2967E-05   max: 0.5157E-04   C at   64  2
       a = 15.000      CL =  0.6414
      Cm = -0.0705     CD =  0.17857   =>   CDf =  0.00288    CDp =  0.17569
 plradd ia,ip,cpol           25           0  3.21000000E-04

 Point added to stored polar  1
 Save file unspecified or not available
 Dump file unspecified or not available

.OPERva   c>  
 Polar accumulation disabled

.OPERv   c>  
        airfoil                    Re           Mach       Ncrit  XtripT  XtripB     file
       ------------------------  ------------  ----------  -----  ------  ------    -------------------
    1  HT 14                     2.430e5       0.000        9.00   1.000   1.000    

Enter polar output filename   s>  
 Output file exists.  Overwrite?  Y

.OPERv   c>  
 XFOIL   c>  
 XFOIL   c>  