
 ===================================================
  XFOIL Version 6.99
  Copyright (C) 2000   Mark Drela, Harold Youngren

  This software comes with ABSOLUTELY NO WARRANTY,
    subject to the GNU General Public License.

  Caveat computor
 ===================================================

 File  xfoil.def  not found

   QUIT    Exit program

  .OPER    Direct operating point(s)
  .MDES    Complex mapping design routine
  .QDES    Surface speed design routine
  .GDES    Geometry design routine

   SAVE f  Write airfoil to labeled coordinate file
   PSAV f  Write airfoil to plain coordinate file
   ISAV f  Write airfoil to ISES coordinate file
   MSAV f  Write airfoil to MSES coordinate file
   REVE    Reverse written-airfoil node ordering

   LOAD f  Read buffer airfoil from coordinate file
   NACA i  Set NACA 4,5-digit airfoil and buffer airfoil
   INTE    Set buffer airfoil by interpolating two airfoils
   NORM    Buffer airfoil normalization toggle
   XYCM rr Change CM reference location, currently  0.25000 0.00000

   BEND    Display structural properties of current airfoil

   PCOP    Set current-airfoil panel nodes directly from buffer airfoil points
   PANE    Set current-airfoil panel nodes ( 160 ) based on curvature
  .PPAR    Show/change paneling

  .PLOP    Plotting options

   WDEF f  Write  current-settings file
   RDEF f  Reread current-settings file
   NAME s  Specify new airfoil name
   NINC    Increment name version number

   Z       Zoom    | (available in all menus)
   U       Unzoom  | 

 XFOIL   c>  
 Labeled airfoil file.  Name:  HT 14                                           

 Number of input coordinate points: 142
 Counterclockwise ordering
 Max thickness =     0.074954  at x =   0.191
 Max camber    =     0.027725  at x =   0.799

  LE  x,y  =   0.00001   0.00054  |   Chord =   0.99760
  TE  x,y  =   0.99698  -0.03473  |

 Current airfoil nodes set from buffer airfoil nodes ( 142 )

 XFOIL   c>  
.OPERi   c>  
Enter Reynolds number   r>  
 M  =    0.0000
 Re =    243000

.OPERv   c>   Calculating unit vorticity distributions ...
 Calculating wake trajectory ...
 Calculating source influence matrix ...

 Solving BL system ...

 Initializing BL ...
    side            1  ...
 MRCHUE: Inverse mode at  25     Hk =   4.299
 MRCHUE: Inverse mode at  26     Hk =   5.300
 MRCHUE: Inverse mode at  27     Hk =   6.279
 MRCHUE: Inverse mode at  28     Hk =   7.237
 MRCHUE: Inverse mode at  29     Hk =   8.177
 MRCHUE: Inverse mode at  30     Hk =   9.097
 MRCHUE: Inverse mode at  31     Hk =   7.009
 MRCHUE: Inverse mode at  32     Hk =   3.976
 MRCHUE: Inverse mode at  33     Hk =   2.500
 MRCHUE: Inverse mode at  74     Hk =   2.500
    side            2  ...
 MRCHUE: Inverse mode at  46     Hk =   3.972
 MRCHUE: Inverse mode at  47     Hk =   4.425
 MRCHUE: Inverse mode at  48     Hk =   4.867
 MRCHUE: Inverse mode at  49     Hk =   5.301
 MRCHUE: Inverse mode at  50     Hk =   5.728
 MRCHUE: Inverse mode at  51     Hk =   6.149
 MRCHUE: Inverse mode at  52     Hk =   6.564
 MRCHUE: Inverse mode at  53     Hk =   6.974
 MRCHUE: Inverse mode at  54     Hk =   7.381
 MRCHUE: Inverse mode at  55     Hk =   7.783
 MRCHUE: Inverse mode at  56     Hk =   8.069
 MRCHUE: Inverse mode at  57     Hk =   8.212
 MRCHUE: Inverse mode at  58     Hk =   8.320
 MRCHUE: Inverse mode at  59     Hk =   8.208
 MRCHUE: Inverse mode at  60     Hk =   6.360
 MRCHUE: Inverse mode at  61     Hk =   5.117
 MRCHUE: Inverse mode at  62     Hk =   4.176
 MRCHUE: Inverse mode at  63     Hk =   3.423
 MRCHUE: Inverse mode at  64     Hk =   2.803

 Side 1  free  transition at x/c =  0.1964   31
 Side 2  free  transition at x/c =  0.8148   59

   1   rms: 0.1964E+00   max: -.1648E+01   T at   31  1   RLX: 0.303
       a =  0.000      CL =  0.6071
      Cm = -0.1060     CD =  0.01323   =>   CDf =  0.00795    CDp =  0.00528

 Side 1  free  transition at x/c =  0.2126   32
 Side 2  free  transition at x/c =  0.8216   60

   2   rms: 0.1746E+00   max: -.1692E+01   T at   32  1   RLX: 0.295
       a =  0.000      CL =  0.5936
      Cm = -0.1027     CD =  0.01199   =>   CDf =  0.00782    CDp =  0.00417

 Side 1  free  transition at x/c =  0.2264   33
 Side 2  free  transition at x/c =  0.8223   60

   3   rms: 0.4062E+00   max: -.3003E+01   T at   33  1   RLX: 0.167
       a =  0.000      CL =  0.5847
      Cm = -0.1007     CD =  0.01160   =>   CDf =  0.00795    CDp =  0.00365

 Side 1  free  transition at x/c =  0.2384   33
 Side 2  free  transition at x/c =  0.8221   60

   4   rms: 0.1595E+00   max: -.1698E+01   T at   33  1   RLX: 0.294
       a =  0.000      CL =  0.5763
      Cm = -0.0989     CD =  0.01218   =>   CDf =  0.00782    CDp =  0.00436

 Side 1  free  transition at x/c =  0.2580   34
 Side 2  free  transition at x/c =  0.8206   60

   5   rms: 0.1234E+00   max: -.1367E+01   T at   34  1   RLX: 0.366
       a =  0.000      CL =  0.5685
      Cm = -0.0973     CD =  0.01214   =>   CDf =  0.00774    CDp =  0.00440

 Side 1  free  transition at x/c =  0.2825   36
 Side 2  free  transition at x/c =  0.8182   60

   6   rms: 0.1505E+00   max: -.1352E+01   C at   36  1   RLX: 0.370
       a =  0.000      CL =  0.5674
      Cm = -0.0967     CD =  0.01125   =>   CDf =  0.00754    CDp =  0.00371

 Side 1  free  transition at x/c =  0.3102   37
 Side 2  free  transition at x/c =  0.8165   59

   7   rms: 0.1586E+00   max: -.2769E+01   C at   37  1   RLX: 0.181
       a =  0.000      CL =  0.5667
      Cm = -0.0964     CD =  0.01144   =>   CDf =  0.00724    CDp =  0.00420

 Side 1  free  transition at x/c =  0.3162   37
 Side 2  free  transition at x/c =  0.8155   59

   8   rms: 0.6447E-01   max: -.7277E+00   T at   37  1   RLX: 0.687
       a =  0.000      CL =  0.5580
      Cm = -0.0948     CD =  0.01167   =>   CDf =  0.00735    CDp =  0.00432

 Side 1  free  transition at x/c =  0.4437   44
 Side 2  free  transition at x/c =  0.8118   59

   9   rms: 0.1261E+00   max: -.2192E+01   C at   44  1   RLX: 0.228
       a =  0.000      CL =  0.5719
      Cm = -0.0968     CD =  0.01070   =>   CDf =  0.00662    CDp =  0.00408

 Side 1  free  transition at x/c =  0.4491   44
 Side 2  free  transition at x/c =  0.8117   59

  10   rms: 0.4363E-01   max: -.5544E+00   C at   44  1   RLX: 0.902
       a =  0.000      CL =  0.5643
      Cm = -0.0955     CD =  0.01070   =>   CDf =  0.00663    CDp =  0.00407
 VISCAL:  Convergence failed
 Type "!" to continue iterating

.OPERv   c>  
.OPERv   c>  
Enter flap hinge x location   r>  
  Top    surface:  y =  0.0160     y/t = 1.0
  Bottom surface:  y = -0.0160     y/t = 0.0

Enter flap hinge y location (or 999 to specify y/t)   r>  
 Flap hinge x,y :  0.7000  0.0000
                                           2  2
 Hinge moment/span = 0.017015  x  1/2 rho V  c 
                                           2   
 x-Force     /span = 0.013042  x  1/2 rho V  c 
                                           2   
 y-Force     /span = 0.151319  x  1/2 rho V  c 


.OPERv   c>   Calculating wake trajectory ...
 Calculating source influence matrix ...

 Solving BL system ...

 Side 1  free  transition at x/c =  0.5036   47
 Side 2  free  transition at x/c =  0.8111   59

   1   rms: 0.6290E+00   max: 0.1082E+02   C at   47  1   RLX: 0.139
       a =  1.000      CL =  0.5782
      Cm = -0.0952     CD =  0.01088   =>   CDf =  0.00619    CDp =  0.00469

 Side 1  free  transition at x/c =  0.4427   44
 Side 2  free  transition at x/c =  0.8175   60

   2   rms: 0.4109E+00   max: 0.6728E+01   C at   44  1   RLX: 0.223
       a =  1.000      CL =  0.5924
      Cm = -0.0937     CD =  0.01114   =>   CDf =  0.00649    CDp =  0.00465

 Side 1  free  transition at x/c =  0.3790   41
 Side 2  free  transition at x/c =  0.8288   60

   3   rms: 0.2365E+00   max: 0.3279E+01   C at   41  1   RLX: 0.394
       a =  1.000      CL =  0.6153
      Cm = -0.0923     CD =  0.01177   =>   CDf =  0.00659    CDp =  0.00519

 Side 1  free  transition at x/c =  0.3049   38
 Side 2  free  transition at x/c =  0.8427   60

   4   rms: 0.1847E+00   max: 0.2235E+01   D at    2  1   RLX: 0.446
       a =  1.000      CL =  0.6319
      Cm = -0.0915     CD =  0.01186   =>   CDf =  0.00708    CDp =  0.00477

 Side 1  free  transition at x/c =  0.2701   36
 Side 2  free  transition at x/c =  0.8532   60

   5   rms: 0.6299E-01   max: -.4293E+00   D at   36  1
       a =  1.000      CL =  0.6554
      Cm = -0.0909     CD =  0.01207   =>   CDf =  0.00720    CDp =  0.00487

 Side 1  free  transition at x/c =  0.2326   34
 Side 2  free  transition at x/c =  0.8694   61

   6   rms: 0.2489E-01   max: 0.2531E+00   D at   35  1
       a =  1.000      CL =  0.6530
      Cm = -0.0904     CD =  0.01207   =>   CDf =  0.00733    CDp =  0.00474

 Side 1  free  transition at x/c =  0.2342   34
 Side 2  free  transition at x/c =  0.8736   61

   7   rms: 0.3224E-02   max: 0.5045E-01   C at   34  1
       a =  1.000      CL =  0.6531
      Cm = -0.0904     CD =  0.01206   =>   CDf =  0.00725    CDp =  0.00481

 Side 1  free  transition at x/c =  0.2326   34
 Side 2  free  transition at x/c =  0.8734   61

   8   rms: 0.6135E-04   max: -.7262E-03   D at   35  1
       a =  1.000      CL =  0.6531
      Cm = -0.0904     CD =  0.01206   =>   CDf =  0.00727    CDp =  0.00479

.OPERv   c>  
.OPERv   c>  
Enter flap hinge x location   r>  
  Top    surface:  y =  0.0160     y/t = 1.0
  Bottom surface:  y = -0.0160     y/t = 0.0

Enter flap hinge y location (or 999 to specify y/t)   r>  
 Flap hinge x,y :  0.7000  0.0000
                                           2  2
 Hinge moment/span = 0.016626  x  1/2 rho V  c 
                                           2   
 x-Force     /span = 0.012489  x  1/2 rho V  c 
                                           2   
 y-Force     /span = 0.152299  x  1/2 rho V  c 


.OPERv   c>   Calculating wake trajectory ...
 Calculating source influence matrix ...

 Solving BL system ...

 Side 1  free  transition at x/c =  0.2326   34
 Side 2  free  transition at x/c =  0.8734   61

   1   rms: 0.2810E+00   max: -.2866E+01   C at   61  2   RLX: 0.174
       a =  2.000      CL =  0.6693
      Cm = -0.0896     CD =  0.01223   =>   CDf =  0.00727    CDp =  0.00496

 Side 1  free  transition at x/c =  0.2135   33
 Side 2  free  transition at x/c =  0.8840   62

   2   rms: 0.2537E+00   max: -.3460E+01   C at   62  2   RLX: 0.145
       a =  2.000      CL =  0.6800
      Cm = -0.0893     CD =  0.01246   =>   CDf =  0.00739    CDp =  0.00508

 Side 1  free  transition at x/c =  0.2027   32
 Side 2  free  transition at x/c =  0.8917   62

   3   rms: 0.1534E+00   max: 0.9840E+00   T at   32  1   RLX: 0.764
       a =  2.000      CL =  0.7438
      Cm = -0.0893     CD =  0.01263   =>   CDf =  0.00732    CDp =  0.00531

 Side 1  free  transition at x/c =  0.1642   31
 Side 2 forced transition at x/c =  0.9999   68

   4   rms: 0.4921E-01   max: -.3920E+00   D at   31  1
       a =  2.000      CL =  0.7586
      Cm = -0.0886     CD =  0.01355   =>   CDf =  0.00759    CDp =  0.00596

 Side 1  free  transition at x/c =  0.1517   30
 Side 2 forced transition at x/c =  0.9999   68

   5   rms: 0.6373E-02   max: -.6084E-01   C at   30  1
       a =  2.000      CL =  0.7579
      Cm = -0.0885     CD =  0.01367   =>   CDf =  0.00764    CDp =  0.00603

 Side 1  free  transition at x/c =  0.1516   30
 Side 2 forced transition at x/c =  0.9999   68

   6   rms: 0.1578E-03   max: 0.1672E-02   T at   30  1
       a =  2.000      CL =  0.7579
      Cm = -0.0885     CD =  0.01367   =>   CDf =  0.00762    CDp =  0.00606

 Side 1  free  transition at x/c =  0.1515   30
 Side 2 forced transition at x/c =  0.9999   68

   7   rms: 0.1396E-05   max: -.3949E-05   T at   60  1
       a =  2.000      CL =  0.7579
      Cm = -0.0885     CD =  0.01367   =>   CDf =  0.00762    CDp =  0.00605

.OPERv   c>  
.OPERv   c>  
Enter flap hinge x location   r>  
  Top    surface:  y =  0.0160     y/t = 1.0
  Bottom surface:  y = -0.0160     y/t = 0.0

Enter flap hinge y location (or 999 to specify y/t)   r>  
 Flap hinge x,y :  0.7000  0.0000
                                           2  2
 Hinge moment/span = 0.016888  x  1/2 rho V  c 
                                           2   
 x-Force     /span = 0.012663  x  1/2 rho V  c 
                                           2   
 y-Force     /span = 0.158518  x  1/2 rho V  c 


.OPERv   c>   Calculating wake trajectory ...
 Calculating source influence matrix ...

 Solving BL system ...

 Side 1  free  transition at x/c =  0.1515   30
 Side 2 forced transition at x/c =  0.9999   68

   1   rms: 0.2078E+00   max: -.1498E+01   C at   30  1   RLX: 0.334
       a =  3.000      CL =  0.7964
      Cm = -0.0884     CD =  0.01389   =>   CDf =  0.00747    CDp =  0.00643

 Side 1  free  transition at x/c =  0.1340   30
 Side 2 forced transition at x/c =  0.9999   67

   2   rms: 0.1692E+00   max: 0.1565E+01   T at    2  1   RLX: 0.437
       a =  3.000      CL =  0.8285
      Cm = -0.0880     CD =  0.01459   =>   CDf =  0.00772    CDp =  0.00687

 Side 1  free  transition at x/c =  0.1209   30
 Side 2 forced transition at x/c =  0.9999   67

   3   rms: 0.8569E-01   max: -.6899E+00   D at   30  1   RLX: 0.725
       a =  3.000      CL =  0.8538
      Cm = -0.0874     CD =  0.01601   =>   CDf =  0.00773    CDp =  0.00828

 MRCHDU: Convergence failed at  30  side 1    Res =  0.3494E+01
 MRCHDU: Convergence failed at  31  side 1    Res =  0.3076E+01
 MRCHDU: Convergence failed at  32  side 1    Res =  0.1994E+01
 MRCHDU: Convergence failed at  33  side 1    Res =  0.2155E+01
 MRCHDU: Convergence failed at  34  side 1    Res =  0.2518E+01
 MRCHDU: Convergence failed at  35  side 1    Res =  0.2830E+01
 MRCHDU: Convergence failed at  36  side 1    Res =  0.3155E+01
 MRCHDU: Convergence failed at  37  side 1    Res =  0.3450E+01
 MRCHDU: Convergence failed at  38  side 1    Res =  0.3655E+01
 MRCHDU: Convergence failed at  39  side 1    Res =  0.3865E+01
 MRCHDU: Convergence failed at  40  side 1    Res =  0.4023E+01
 MRCHDU: Convergence failed at  41  side 1    Res =  0.4162E+01
 MRCHDU: Convergence failed at  42  side 1    Res =  0.4110E+01
 MRCHDU: Convergence failed at  43  side 1    Res =  0.4016E+01
 MRCHDU: Convergence failed at  44  side 1    Res =  0.3913E+01
 MRCHDU: Convergence failed at  45  side 1    Res =  0.3924E+01
 MRCHDU: Convergence failed at  46  side 1    Res =  0.1198E+02
 MRCHDU: Convergence failed at  47  side 1    Res =  0.1367E+02
 MRCHDU: Convergence failed at  48  side 1    Res =  0.1580E+02
 MRCHDU: Convergence failed at  49  side 1    Res =  0.1810E+02
 MRCHDU: Convergence failed at  50  side 1    Res =  0.2035E+02
 MRCHDU: Convergence failed at  51  side 1    Res =  0.2351E+02
 MRCHDU: Convergence failed at  52  side 1    Res =  0.2677E+02
 MRCHDU: Convergence failed at  53  side 1    Res =  0.3137E+02
 MRCHDU: Convergence failed at  54  side 1    Res =  0.3661E+02
 MRCHDU: Convergence failed at  55  side 1    Res =  0.4267E+02
 MRCHDU: Convergence failed at  56  side 1    Res =  0.5034E+02
 MRCHDU: Convergence failed at  57  side 1    Res =  0.5634E+02
 MRCHDU: Convergence failed at  58  side 1    Res =  0.6441E+02
 MRCHDU: Convergence failed at  59  side 1    Res =  0.6778E+02
 MRCHDU: Convergence failed at  60  side 1    Res =  0.6578E+02
 MRCHDU: Convergence failed at  61  side 1    Res =  0.5790E+02
 MRCHDU: Convergence failed at  62  side 1    Res =  0.4599E+02
 MRCHDU: Convergence failed at  63  side 1    Res =  0.3201E+02
 MRCHDU: Convergence failed at  64  side 1    Res =  0.2200E+02
 MRCHDU: Convergence failed at  65  side 1    Res =  0.4207E+01
 MRCHDU: Convergence failed at  66  side 1    Res =  0.3506E+02
 MRCHDU: Convergence failed at  67  side 1    Res =  0.5948E+02
 MRCHDU: Convergence failed at  68  side 1    Res =  0.1057E+02
 MRCHDU: Convergence failed at  69  side 1    Res =  0.1357E+02
 MRCHDU: Convergence failed at  70  side 1    Res =  0.1438E+02
 MRCHDU: Convergence failed at  71  side 1    Res =  0.2009E+02
 MRCHDU: Convergence failed at  72  side 1    Res =  0.2203E+02
 MRCHDU: Convergence failed at  73  side 1    Res =  0.3180E+02
 MRCHDU: Convergence failed at  74  side 1    Res =  0.5851E+02
 MRCHDU: Convergence failed at  75  side 1    Res =  0.4361E+02
 MRCHDU: Convergence failed at  76  side 1    Res =  0.4007E+03
 MRCHDU: Convergence failed at  77  side 1    Res =  0.1941E+03
 Side 1  free  transition at x/c =  0.1116   29
 Side 2 forced transition at x/c =  0.9999   67

   4   rms: 0.6459E+00   max: 0.2950E+01   D at   69  2   RLX: 0.176
       a =  3.000      CL =  1.4475
      Cm = -0.3093     CD =  0.00640   =>   CDf =  0.00241    CDp =  0.00399

 MRCHDU: Convergence failed at  65  side 1    Res =  0.4250E+00
 Side 1  free  transition at x/c =  0.1068   29
 Side 2 forced transition at x/c =  0.9999   67

   5   rms: 0.3170E+00   max: 0.6564E+00   D at   69  2   RLX: 0.521
       a =  3.000      CL =  1.0486
      Cm = -0.1562     CD =  0.01433   =>   CDf =  0.00829    CDp =  0.00603

 Side 1  free  transition at x/c =  0.1089   29
 Side 2 forced transition at x/c =  0.9999   67

   6   rms: 0.2865E+00   max: -.1699E+01   D at   55  1   RLX: 0.294
       a =  3.000      CL =  0.9817
      Cm = -0.1323     CD =  0.01325   =>   CDf =  0.00774    CDp =  0.00551

 MRCHDU: Convergence failed at  53  side 1    Res =  0.1601E+00
 Side 1  free  transition at x/c =  0.1091   29
 Side 2 forced transition at x/c =  0.9999   67

   7   rms: 0.2650E+00   max: -.1270E+01   D at   55  1   RLX: 0.394
       a =  3.000      CL =  0.9272
      Cm = -0.1090     CD =  0.01277   =>   CDf =  0.00810    CDp =  0.00467

 MRCHDU: Convergence failed at  67  side 1    Res =  0.3465E+00
 Side 1  free  transition at x/c =  0.1101   29
 Side 2 forced transition at x/c =  0.9999   67

   8   rms: 0.1518E+00   max: -.1064E+01   D at   56  1   RLX: 0.470
       a =  3.000      CL =  0.9067
      Cm = -0.1038     CD =  0.01420   =>   CDf =  0.00842    CDp =  0.00579

 Side 1  free  transition at x/c =  0.1074   29
 Side 2 forced transition at x/c =  0.9999   67

   9   rms: 0.1172E+00   max: -.8365E+00   D at   57  1   RLX: 0.598
       a =  3.000      CL =  0.8791
      Cm = -0.0939     CD =  0.01513   =>   CDf =  0.00821    CDp =  0.00692

 Side 1  free  transition at x/c =  0.1058   29
 Side 2 forced transition at x/c =  0.9999   67

  10   rms: 0.6361E-01   max: -.6004E+00   D at   57  1   RLX: 0.833
       a =  3.000      CL =  0.8639
      Cm = -0.0877     CD =  0.01561   =>   CDf =  0.00790    CDp =  0.00771
 VISCAL:  Convergence failed
 Type "!" to continue iterating

.OPERv   c>  
.OPERv   c>  
Enter flap hinge x location   r>  
  Top    surface:  y =  0.0160     y/t = 1.0
  Bottom surface:  y = -0.0160     y/t = 0.0

Enter flap hinge y location (or 999 to specify y/t)   r>  
 Flap hinge x,y :  0.7000  0.0000
                                           2  2
 Hinge moment/span = 0.017554  x  1/2 rho V  c 
                                           2   
 x-Force     /span = 0.012797  x  1/2 rho V  c 
                                           2   
 y-Force     /span = 0.167624  x  1/2 rho V  c 


.OPERv   c>   Calculating wake trajectory ...
 Calculating source influence matrix ...

 Solving BL system ...

 Side 1  free  transition at x/c =  0.1045   29
 Side 2 forced transition at x/c =  0.9999   67

   1   rms: 0.3307E+00   max: 0.1837E+01   T at   29  1   RLX: 0.816
       a =  4.000      CL =  0.9400
      Cm = -0.0846     CD =  0.02172   =>   CDf =  0.00762    CDp =  0.01411

 MRCHDU: Convergence failed at  30  side 1    Res =  0.1636E+02
 MRCHDU: Convergence failed at  31  side 1    Res =  0.2314E+02
 MRCHDU: Convergence failed at  32  side 1    Res =  0.4360E+02
 MRCHDU: Convergence failed at  33  side 1    Res =  0.3118E+02
 MRCHDU: Convergence failed at  34  side 1    Res =  0.2038E+02
 MRCHDU: Convergence failed at  35  side 1    Res =  0.1480E+02
 MRCHDU: Convergence failed at  36  side 1    Res =  0.1260E+02
 MRCHDU: Convergence failed at  37  side 1    Res =  0.8862E+01
 MRCHDU: Convergence failed at  38  side 1    Res =  0.1004E+02
 MRCHDU: Convergence failed at  39  side 1    Res =  0.1182E+02
 MRCHDU: Convergence failed at  40  side 1    Res =  0.1310E+02
 MRCHDU: Convergence failed at  41  side 1    Res =  0.1421E+02
 MRCHDU: Convergence failed at  42  side 1    Res =  0.1632E+02
 MRCHDU: Convergence failed at  43  side 1    Res =  0.1855E+02
 MRCHDU: Convergence failed at  44  side 1    Res =  0.2161E+02
 MRCHDU: Convergence failed at  45  side 1    Res =  0.2492E+02
 MRCHDU: Convergence failed at  46  side 1    Res =  0.2701E+02
 MRCHDU: Convergence failed at  47  side 1    Res =  0.2942E+02
 MRCHDU: Convergence failed at  48  side 1    Res =  0.3322E+02
 MRCHDU: Convergence failed at  49  side 1    Res =  0.3831E+02
 MRCHDU: Convergence failed at  50  side 1    Res =  0.4348E+02
 MRCHDU: Convergence failed at  51  side 1    Res =  0.4926E+02
 MRCHDU: Convergence failed at  52  side 1    Res =  0.5585E+02
 MRCHDU: Convergence failed at  53  side 1    Res =  0.6124E+02
 MRCHDU: Convergence failed at  54  side 1    Res =  0.6963E+02
 MRCHDU: Convergence failed at  55  side 1    Res =  0.8209E+02
 MRCHDU: Convergence failed at  56  side 1    Res =  0.9863E+02
 MRCHDU: Convergence failed at  57  side 1    Res =  0.1116E+03
 MRCHDU: Convergence failed at  58  side 1    Res =  0.9882E+02
 MRCHDU: Convergence failed at  59  side 1    Res =  0.7538E+02
 MRCHDU: Convergence failed at  60  side 1    Res =  0.6993E+02
 MRCHDU: Convergence failed at  61  side 1    Res =  0.6306E+02
 MRCHDU: Convergence failed at  62  side 1    Res =  0.5469E+02
 MRCHDU: Convergence failed at  63  side 1    Res =  0.4346E+02
 MRCHDU: Convergence failed at  64  side 1    Res =  0.3341E+02
 MRCHDU: Convergence failed at  65  side 1    Res =  0.2603E+02
 MRCHDU: Convergence failed at  66  side 1    Res =  0.1145E+02
 MRCHDU: Convergence failed at  67  side 1    Res =  0.3912E+02
 MRCHDU: Convergence failed at  68  side 1    Res =  0.4160E+03
 MRCHDU: Convergence failed at  69  side 1    Res =  0.4002E+02
 MRCHDU: Convergence failed at  70  side 1    Res =  0.3996E+02
 MRCHDU: Convergence failed at  71  side 1    Res =  0.4164E+02
 MRCHDU: Convergence failed at  72  side 1    Res =  0.3817E+02
 MRCHDU: Convergence failed at  73  side 1    Res =  0.2088E+02
 MRCHDU: Convergence failed at  74  side 1    Res =  0.5341E+02
 MRCHDU: Convergence failed at  75  side 1    Res =  0.6466E+02
 MRCHDU: Convergence failed at  76  side 1    Res =  0.8791E+02
 MRCHDU: Convergence failed at  77  side 1    Res =  0.2228E+03
 MRCHDU: Convergence failed at  78  side 1    Res =  0.2421E+03
 Side 1  free  transition at x/c =  0.0777   28
 Side 2 forced transition at x/c =  0.9999   66

   2   rms: 0.6747E+00   max: -.3895E+01   C at   66  2   RLX: 0.128
       a =  4.000      CL =  1.6638
      Cm = -0.3556     CD =  0.01170   =>   CDf =  0.00247    CDp =  0.00923

 MRCHDU: Convergence failed at  40  side 1    Res =  0.1861E+00
 MRCHDU: Convergence failed at  41  side 1    Res =  0.1760E+00
 MRCHDU: Convergence failed at  42  side 1    Res =  0.1661E+00
 MRCHDU: Convergence failed at  43  side 1    Res =  0.1557E+00
 MRCHDU: Convergence failed at  44  side 1    Res =  0.1449E+00
 MRCHDU: Convergence failed at  45  side 1    Res =  0.1334E+00
 MRCHDU: Convergence failed at  46  side 1    Res =  0.1198E+00
 MRCHDU: Convergence failed at  47  side 1    Res =  0.1040E+00
 MRCHDU: Convergence failed at  48  side 1    Res =  0.8089E-01
 Side 1  free  transition at x/c =  0.0771   28
 Side 2 forced transition at x/c =  0.9999   66

   3   rms: 0.3576E+00   max: -.7234E+00   D at   67  2   RLX: 0.492
       a =  4.000      CL =  1.0662
      Cm = -0.1421     CD =  0.04005   =>   CDf =  0.00312    CDp =  0.03693

 Side 1  free  transition at x/c =  0.0802   28
 Side 2 forced transition at x/c =  0.9999   66

   4   rms: 0.5225E+00   max: -.2731E+01   T at   28  1   RLX: 0.183
       a =  4.000      CL =  1.0045
      Cm = -0.1295     CD =  0.03914   =>   CDf =  0.00326    CDp =  0.03587

 Side 1  free  transition at x/c =  0.0891   28
 Side 2 forced transition at x/c =  0.9999   66

   5   rms: 0.5318E+00   max: -.2293E+01   T at   29  1   RLX: 0.218
       a =  4.000      CL =  0.9924
      Cm = -0.1177     CD =  0.03653   =>   CDf =  0.00344    CDp =  0.03310

 Side 1  free  transition at x/c =  0.0866   28
 Side 2 forced transition at x/c =  0.9999   66

   6   rms: 0.5103E+00   max: 0.2796E+01   T at   28  1   RLX: 0.224
       a =  4.000      CL =  1.0047
      Cm = -0.1029     CD =  0.03420   =>   CDf =  0.00337    CDp =  0.03083

 Side 1  free  transition at x/c =  0.0770   28
 Side 2 forced transition at x/c =  0.9999   66

   7   rms: 0.5320E+00   max: -.1958E+01   D at   39  1   RLX: 0.255
       a =  4.000      CL =  0.9684
      Cm = -0.0876     CD =  0.03105   =>   CDf =  0.00334    CDp =  0.02771

 Side 1  free  transition at x/c =  0.0791   28
 Side 2 forced transition at x/c =  0.9999   66

   8   rms: 0.7320E+00   max: -.2450E+01   D at   39  1   RLX: 0.204
       a =  4.000      CL =  0.9753
      Cm = -0.0783     CD =  0.02588   =>   CDf =  0.00360    CDp =  0.02228

 Side 1  free  transition at x/c =  0.0800   29
 Side 2 forced transition at x/c =  0.9999   65

   9   rms: 0.8194E+00   max: 0.2937E+01   D at    2  1   RLX: 0.178
       a =  4.000      CL =  0.9965
      Cm = -0.0755     CD =  0.02187   =>   CDf =  0.00453    CDp =  0.01734

 Side 1  free  transition at x/c =  0.0782   29
 Side 2 forced transition at x/c =  0.9999   65

  10   rms: 0.7039E+00   max: -.2483E+01   D at   67  1   RLX: 0.201
       a =  4.000      CL =  1.0152
      Cm = -0.0772     CD =  0.01863   =>   CDf =  0.00525    CDp =  0.01338
 VISCAL:  Convergence failed
 Type "!" to continue iterating

.OPERv   c>  
.OPERv   c>  
Enter flap hinge x location   r>  
  Top    surface:  y =  0.0160     y/t = 1.0
  Bottom surface:  y = -0.0160     y/t = 0.0

Enter flap hinge y location (or 999 to specify y/t)   r>  
 Flap hinge x,y :  0.7000  0.0000
                                           2  2
 Hinge moment/span = 0.015067  x  1/2 rho V  c 
                                           2   
 x-Force     /span = 0.009271  x  1/2 rho V  c 
                                           2   
 y-Force     /span = 0.153173  x  1/2 rho V  c 


.OPERv   c>   Calculating wake trajectory ...
 Calculating source influence matrix ...

 Solving BL system ...

 Side 1  free  transition at x/c =  0.0765   28
 Side 2 forced transition at x/c =  0.9999   65

   1   rms: 0.4226E+00   max: 0.2927E+01   T at   28  1   RLX: 0.204
       a =  5.000      CL =  1.0403
      Cm = -0.0783     CD =  0.01810   =>   CDf =  0.00616    CDp =  0.01193

 MRCHDU: Convergence failed at  51  side 1    Res =  0.7616E-01
 Side 1  free  transition at x/c =  0.0638   27
 Side 2 forced transition at x/c =  0.9999   65

   2   rms: 0.3171E+00   max: 0.1804E+01   T at   27  1   RLX: 0.314
       a =  5.000      CL =  1.0619
      Cm = -0.0811     CD =  0.01817   =>   CDf =  0.00628    CDp =  0.01189

 Side 1  free  transition at x/c =  0.0553   27
 Side 2 forced transition at x/c =  0.9999   65

   3   rms: 0.2285E+00   max: -.1386E+01   D at   31  1   RLX: 0.361
       a =  5.000      CL =  1.0707
      Cm = -0.0830     CD =  0.01939   =>   CDf =  0.00624    CDp =  0.01315

 MRCHDU: Convergence failed at  28  side 1    Res =  0.6257E+01
 MRCHDU: Convergence failed at  29  side 1    Res =  0.2346E+01
 MRCHDU: Convergence failed at  30  side 1    Res =  0.6134E+01
 MRCHDU: Convergence failed at  31  side 1    Res =  0.1004E+02
 MRCHDU: Convergence failed at  32  side 1    Res =  0.9088E+01
 MRCHDU: Convergence failed at  33  side 1    Res =  0.6017E+01
 MRCHDU: Convergence failed at  34  side 1    Res =  0.7363E+01
 MRCHDU: Convergence failed at  35  side 1    Res =  0.1027E+02
 MRCHDU: Convergence failed at  36  side 1    Res =  0.1084E+02
 MRCHDU: Convergence failed at  37  side 1    Res =  0.1668E+02
 MRCHDU: Convergence failed at  38  side 1    Res =  0.2726E+02
 MRCHDU: Convergence failed at  39  side 1    Res =  0.4366E+02
 MRCHDU: Convergence failed at  40  side 1    Res =  0.3230E+02
 MRCHDU: Convergence failed at  41  side 1    Res =  0.6901E+02
 MRCHDU: Convergence failed at  42  side 1    Res =  0.3316E+02
 MRCHDU: Convergence failed at  43  side 1    Res =  0.1918E+02
 MRCHDU: Convergence failed at  44  side 1    Res =  0.5648E+02
 MRCHDU: Convergence failed at  45  side 1    Res =  0.6272E+02
 MRCHDU: Convergence failed at  46  side 1    Res =  0.1546E+02
 MRCHDU: Convergence failed at  47  side 1    Res =  0.1974E+03
 MRCHDU: Convergence failed at  48  side 1    Res =  0.1636E+03
 MRCHDU: Convergence failed at  49  side 1    Res =  0.4811E+02
 MRCHDU: Convergence failed at  50  side 1    Res =  0.4489E+02
 MRCHDU: Convergence failed at  51  side 1    Res =  0.4181E+02
 MRCHDU: Convergence failed at  52  side 1    Res =  0.6286E+02
 MRCHDU: Convergence failed at  53  side 1    Res =  0.6905E+02
 MRCHDU: Convergence failed at  54  side 1    Res =  0.2554E+02
 MRCHDU: Convergence failed at  55  side 1    Res =  0.2380E+02
 MRCHDU: Convergence failed at  56  side 1    Res =  0.2324E+02
 MRCHDU: Convergence failed at  57  side 1    Res =  0.2290E+02
 MRCHDU: Convergence failed at  58  side 1    Res =  0.2271E+02
 MRCHDU: Convergence failed at  59  side 1    Res =  0.2277E+02
 MRCHDU: Convergence failed at  60  side 1    Res =  0.2271E+02
 MRCHDU: Convergence failed at  61  side 1    Res =  0.2281E+02
 MRCHDU: Convergence failed at  62  side 1    Res =  0.2276E+02
 MRCHDU: Convergence failed at  63  side 1    Res =  0.2258E+02
 MRCHDU: Convergence failed at  64  side 1    Res =  0.2602E+02
 MRCHDU: Convergence failed at  65  side 1    Res =  0.2648E+02
 MRCHDU: Convergence failed at  66  side 1    Res =  0.5355E+02
 MRCHDU: Convergence failed at  67  side 1    Res =  0.2620E+02
 MRCHDU: Convergence failed at  68  side 1    Res =  0.3493E+02
 MRCHDU: Convergence failed at  69  side 1    Res =  0.3654E+02
 MRCHDU: Convergence failed at  70  side 1    Res =  0.2966E+02
 MRCHDU: Convergence failed at  71  side 1    Res =  0.8220E+02
 MRCHDU: Convergence failed at  72  side 1    Res =  0.5761E+02
 MRCHDU: Convergence failed at  73  side 1    Res =  0.1374E+03
 MRCHDU: Convergence failed at  74  side 1    Res =  0.8203E+02
 MRCHDU: Convergence failed at  75  side 1    Res =  0.2787E+02
 MRCHDU: Convergence failed at  76  side 1    Res =  0.4618E+02
 MRCHDU: Convergence failed at  77  side 1    Res =  0.1022E+03
 MRCHDU: Convergence failed at  78  side 1    Res =  0.2063E+03
 MRCHDU: Convergence failed at  79  side 1    Res =  0.1152E+03
 MRCHDU: Convergence failed at  80  side 1    Res =  0.8426E+02
 Side 1  free  transition at x/c =  0.0526   27
 Side 2 forced transition at x/c =  0.9999   64

   4   rms: 0.2359E+01   max: 0.1334E+02   D at   66  2   RLX: 0.041
       a =  5.000      CL =  2.9745
      Cm = -0.7072     CD =  0.00364   =>   CDf =  0.00182    CDp =  0.00181

 MRCHDU: Convergence failed at  31  side 1    Res =  0.1850E+00
 MRCHDU: Convergence failed at  32  side 1    Res =  0.1821E+00
 MRCHDU: Convergence failed at  33  side 1    Res =  0.1804E+00
 MRCHDU: Convergence failed at  34  side 1    Res =  0.1757E+00
 MRCHDU: Convergence failed at  35  side 1    Res =  0.1741E+00
 MRCHDU: Convergence failed at  36  side 1    Res =  0.1709E+00
 MRCHDU: Convergence failed at  37  side 1    Res =  0.1677E+00
 MRCHDU: Convergence failed at  38  side 1    Res =  0.1643E+00
 MRCHDU: Convergence failed at  39  side 1    Res =  0.1608E+00
 MRCHDU: Convergence failed at  40  side 1    Res =  0.1569E+00
 MRCHDU: Convergence failed at  41  side 1    Res =  0.1525E+00
 MRCHDU: Convergence failed at  42  side 1    Res =  0.1478E+00
 MRCHDU: Convergence failed at  43  side 1    Res =  0.1423E+00
 MRCHDU: Convergence failed at  44  side 1    Res =  0.1363E+00
 MRCHDU: Convergence failed at  45  side 1    Res =  0.1281E+00
 MRCHDU: Convergence failed at  46  side 1    Res =  0.1174E+00
 MRCHDU: Convergence failed at  47  side 1    Res =  0.9965E-01
 MRCHDU: Convergence failed at  59  side 1    Res =  0.2392E+00
 MRCHDU: Convergence failed at  60  side 1    Res =  0.2421E+00
 MRCHDU: Convergence failed at  61  side 1    Res =  0.2452E+00
 MRCHDU: Convergence failed at  62  side 1    Res =  0.2491E+00
 MRCHDU: Convergence failed at  63  side 1    Res =  0.2538E+00
 MRCHDU: Convergence failed at  64  side 1    Res =  0.2591E+00
 MRCHDU: Convergence failed at  65  side 1    Res =  0.2653E+00
 MRCHDU: Convergence failed at  66  side 1    Res =  0.2721E+00
 MRCHDU: Convergence failed at  67  side 1    Res =  0.2792E+00
 MRCHDU: Convergence failed at  68  side 1    Res =  0.3010E+00
 MRCHDU: Convergence failed at  69  side 1    Res =  0.2860E+00
 MRCHDU: Convergence failed at  70  side 1    Res =  0.2808E+00
 MRCHDU: Convergence failed at  71  side 1    Res =  0.2784E+00
 MRCHDU: Convergence failed at  72  side 1    Res =  0.2780E+00
 MRCHDU: Convergence failed at  73  side 1    Res =  0.2797E+00
 MRCHDU: Convergence failed at  74  side 1    Res =  0.2834E+00
 MRCHDU: Convergence failed at  75  side 1    Res =  0.2887E+00
 MRCHDU: Convergence failed at  76  side 1    Res =  0.2943E+00
 MRCHDU: Convergence failed at  77  side 1    Res =  0.2990E+00
 MRCHDU: Convergence failed at  78  side 1    Res =  0.3016E+00
 MRCHDU: Convergence failed at  79  side 1    Res =  0.3039E+00
 MRCHDU: Convergence failed at  80  side 1    Res =  0.2751E+00
 Side 1  free  transition at x/c =  0.0488   27
 Side 2 forced transition at x/c =  0.9999   64

   5   rms: 0.6573E+00   max: 0.1854E+01   D at   67  2   RLX: 0.263
       a =  5.000      CL =  1.8981
      Cm = -0.3587     CD =  0.01639   =>   CDf =  0.00331    CDp =  0.01308

 Side 1  free  transition at x/c =  0.0482   27
 Side 2 forced transition at x/c =  0.9999   64

   6   rms: 0.5082E+00   max: -.8211E+00   D at   65  2   RLX: 0.347
       a =  5.000      CL =  1.5122
      Cm = -0.2248     CD =  0.03018   =>   CDf =  0.00426    CDp =  0.02592

 MRCHDU: Convergence failed at  37  side 1    Res =  0.2650E-01
 Side 1  free  transition at x/c =  0.0494   27
 Side 2 forced transition at x/c =  0.9999   64

   7   rms: 0.7280E+00   max: -.3104E+01   D at   37  1   RLX: 0.161
       a =  5.000      CL =  1.4033
      Cm = -0.1747     CD =  0.02679   =>   CDf =  0.00447    CDp =  0.02233

 MRCHDU: Convergence failed at  37  side 1    Res =  0.1235E+00
 MRCHDU: Convergence failed at  38  side 1    Res =  0.1470E+00
 Side 1  free  transition at x/c =  0.0513   27
 Side 2 forced transition at x/c =  0.9999   64

   8   rms: 0.1315E+01   max: -.5309E+01   D at   39  1   RLX: 0.094
       a =  5.000      CL =  1.3393
      Cm = -0.1524     CD =  0.01973   =>   CDf =  0.00488    CDp =  0.01484

 Side 1  free  transition at x/c =  0.0518   27
 Side 2 forced transition at x/c =  0.9999   64

   9   rms: 0.1187E+01   max: 0.4746E+01   C at   64  2   RLX: 0.113
       a =  5.000      CL =  1.3192
      Cm = -0.1316     CD =  0.01557   =>   CDf =  0.00562    CDp =  0.00994

 Side 1  free  transition at x/c =  0.0499   27
 Side 2 forced transition at x/c =  0.9999   64

  10   rms: 0.8088E+00   max: -.3070E+01   D at   68  1   RLX: 0.163
       a =  5.000      CL =  1.2974
      Cm = -0.1208     CD =  0.01336   =>   CDf =  0.00601    CDp =  0.00735
 VISCAL:  Convergence failed
 Type "!" to continue iterating

.OPERv   c>  
.OPERv   c>  
Enter flap hinge x location   r>  
  Top    surface:  y =  0.0160     y/t = 1.0
  Bottom surface:  y = -0.0160     y/t = 0.0

Enter flap hinge y location (or 999 to specify y/t)   r>  
 Flap hinge x,y :  0.7000  0.0000
                                           2  2
 Hinge moment/span = 0.020360  x  1/2 rho V  c 
                                           2   
 x-Force     /span = 0.012238  x  1/2 rho V  c 
                                           2   
 y-Force     /span = 0.186864  x  1/2 rho V  c 


.OPERv   c>  
 Solving BL system ...

 Side 1  free  transition at x/c =  0.0482   27
 Side 2 forced transition at x/c =  0.9999   64

   1   rms: 0.1176E+01   max: -.4671E+01   D at   52  1   RLX: 0.107
       a =  5.000      CL =  1.2875
      Cm = -0.1156     CD =  0.01196   =>   CDf =  0.00652    CDp =  0.00544

 MRCHDU: Convergence failed at  49  side 1    Res =  0.4729E+00
 Side 1  free  transition at x/c =  0.0470   27
 Side 2 forced transition at x/c =  0.9999   64

   2   rms: 0.3750E+00   max: -.1374E+01   D at   68  1   RLX: 0.364
       a =  5.000      CL =  1.2405
      Cm = -0.1048     CD =  0.01477   =>   CDf =  0.00774    CDp =  0.00703

 Side 1  free  transition at x/c =  0.0445   26
 Side 2 forced transition at x/c =  0.9999   64

   3   rms: 0.2581E+00   max: 0.1013E+01   D at   66  2   RLX: 0.594
       a =  5.000      CL =  1.1552
      Cm = -0.0923     CD =  0.01803   =>   CDf =  0.00747    CDp =  0.01055

 Side 1  free  transition at x/c =  0.0432   26
 Side 2 forced transition at x/c =  0.9999   64

   4   rms: 0.1398E+00   max: -.1209E+01   C at   64  2   RLX: 0.414
       a =  5.000      CL =  1.1243
      Cm = -0.0895     CD =  0.01888   =>   CDf =  0.00757    CDp =  0.01132

 Side 1  free  transition at x/c =  0.0436   26
 Side 2 forced transition at x/c =  0.9999   64

   5   rms: 0.8605E-01   max: -.8522E+00   C at   64  2   RLX: 0.587
       a =  5.000      CL =  1.0941
      Cm = -0.0857     CD =  0.02020   =>   CDf =  0.00761    CDp =  0.01259

 Side 1  free  transition at x/c =  0.0443   26
 Side 2 forced transition at x/c =  0.9999   64

   6   rms: 0.3782E-01   max: -.4055E+00   C at   64  2
       a =  5.000      CL =  1.0698
      Cm = -0.0826     CD =  0.02122   =>   CDf =  0.00764    CDp =  0.01358

 Side 1  free  transition at x/c =  0.0450   26
 Side 2 forced transition at x/c =  0.9999   64

   7   rms: 0.1586E-02   max: -.1637E-01   C at   64  2
       a =  5.000      CL =  1.0687
      Cm = -0.0824     CD =  0.02123   =>   CDf =  0.00766    CDp =  0.01357

 Side 1  free  transition at x/c =  0.0451   26
 Side 2 forced transition at x/c =  0.9999   64

   8   rms: 0.5638E-05   max: -.5084E-04   C at   64  2
       a =  5.000      CL =  1.0688
      Cm = -0.0824     CD =  0.02123   =>   CDf =  0.00766    CDp =  0.01357
 Calculating wake trajectory ...
 Calculating source influence matrix ...

 Solving BL system ...

 Side 1  free  transition at x/c =  0.0451   26
 Side 2 forced transition at x/c =  0.9999   64

   1   rms: 0.1015E+00   max: 0.9109E+00   T at   26  1   RLX: 0.991
       a =  5.500      CL =  1.1196
      Cm = -0.0808     CD =  0.02245   =>   CDf =  0.00767    CDp =  0.01478

 Side 1  free  transition at x/c =  0.0379   25
 Side 2 forced transition at x/c =  0.9999   64

   2   rms: 0.5064E-01   max: -.2570E+00   D at   25  1
       a =  5.500      CL =  1.1152
      Cm = -0.0805     CD =  0.02320   =>   CDf =  0.00743    CDp =  0.01577

 Side 1  free  transition at x/c =  0.0376   25
 Side 2 forced transition at x/c =  0.9999   64

   3   rms: 0.3766E-02   max: 0.2522E-01   D at   26  1
       a =  5.500      CL =  1.1161
      Cm = -0.0806     CD =  0.02333   =>   CDf =  0.00752    CDp =  0.01581

 Side 1  free  transition at x/c =  0.0375   25
 Side 2 forced transition at x/c =  0.9999   64

   4   rms: 0.3633E-04   max: -.1838E-03   D at   25  1
       a =  5.500      CL =  1.1160
      Cm = -0.0806     CD =  0.02333   =>   CDf =  0.00752    CDp =  0.01581
 Calculating wake trajectory ...
 Calculating source influence matrix ...

 Solving BL system ...

 Side 1  free  transition at x/c =  0.0375   25
 Side 2 forced transition at x/c =  0.9999   64

   1   rms: 0.9859E-01   max: 0.7969E+00   T at   25  1
       a =  6.000      CL =  1.1646
      Cm = -0.0786     CD =  0.02515   =>   CDf =  0.00717    CDp =  0.01798

 Side 1  free  transition at x/c =  0.0315   25
 Side 2 forced transition at x/c =  0.9999   63

   2   rms: 0.6953E-01   max: -.3153E+00   D at   25  1
       a =  6.000      CL =  1.1611
      Cm = -0.0786     CD =  0.02542   =>   CDf =  0.00707    CDp =  0.01835

 Side 1  free  transition at x/c =  0.0318   25
 Side 2 forced transition at x/c =  0.9999   63

   3   rms: 0.5096E-02   max: 0.3752E-01   D at   26  1
       a =  6.000      CL =  1.1612
      Cm = -0.0786     CD =  0.02564   =>   CDf =  0.00734    CDp =  0.01830

 Side 1  free  transition at x/c =  0.0317   25
 Side 2 forced transition at x/c =  0.9999   63

   4   rms: 0.1181E-03   max: 0.9090E-03   D at   26  1
       a =  6.000      CL =  1.1612
      Cm = -0.0786     CD =  0.02563   =>   CDf =  0.00733    CDp =  0.01830

 Side 1  free  transition at x/c =  0.0317   25
 Side 2 forced transition at x/c =  0.9999   63

   5   rms: 0.2153E-05   max: -.6237E-05   C at   63  2
       a =  6.000      CL =  1.1612
      Cm = -0.0786     CD =  0.02563   =>   CDf =  0.00733    CDp =  0.01830
 Calculating wake trajectory ...
 Calculating source influence matrix ...

 Solving BL system ...

 Side 1  free  transition at x/c =  0.0317   25
 Side 2 forced transition at x/c =  0.9999   63

   1   rms: 0.9857E-01   max: 0.6305E+00   T at   25  1
       a =  6.500      CL =  1.2069
      Cm = -0.0761     CD =  0.02829   =>   CDf =  0.00733    CDp =  0.02096

 Side 1  free  transition at x/c =  0.0278   25
 Side 2 forced transition at x/c =  0.9999   63

   2   rms: 0.7990E-01   max: -.3710E+00   D at   26  1
       a =  6.500      CL =  1.2042
      Cm = -0.0762     CD =  0.02806   =>   CDf =  0.00682    CDp =  0.02124

 Side 1  free  transition at x/c =  0.0281   25
 Side 2 forced transition at x/c =  0.9999   63

   3   rms: 0.1702E-02   max: 0.4571E-02   T at   28  1
       a =  6.500      CL =  1.2042
      Cm = -0.0762     CD =  0.02836   =>   CDf =  0.00712    CDp =  0.02123

 Side 1  free  transition at x/c =  0.0281   25
 Side 2 forced transition at x/c =  0.9999   63

   4   rms: 0.4426E-04   max: 0.2937E-03   D at   25  1
       a =  6.500      CL =  1.2042
      Cm = -0.0762     CD =  0.02836   =>   CDf =  0.00713    CDp =  0.02122
 Calculating wake trajectory ...
 Calculating source influence matrix ...

 Solving BL system ...

 Side 1  free  transition at x/c =  0.0281   25
 Side 2 forced transition at x/c =  0.9999   63

   1   rms: 0.1110E+00   max: 0.6822E+00   T at   25  1
       a =  7.000      CL =  1.2435
      Cm = -0.0739     CD =  0.03286   =>   CDf =  0.00672    CDp =  0.02614

 MRCHDU: Convergence failed at  26  side 1    Res =  0.1066E+02
 MRCHDU: Convergence failed at  27  side 1    Res =  0.3507E+02
 MRCHDU: Convergence failed at  28  side 1    Res =  0.6523E+02
 MRCHDU: Convergence failed at  29  side 1    Res =  0.2562E+02
 MRCHDU: Convergence failed at  30  side 1    Res =  0.2628E+02
 MRCHDU: Convergence failed at  31  side 1    Res =  0.3501E+02
 MRCHDU: Convergence failed at  32  side 1    Res =  0.3164E+02
 MRCHDU: Convergence failed at  33  side 1    Res =  0.1035E+03
 MRCHDU: Convergence failed at  34  side 1    Res =  0.4722E+02
 MRCHDU: Convergence failed at  35  side 1    Res =  0.2190E+03
 MRCHDU: Convergence failed at  36  side 1    Res =  0.5398E+02
 MRCHDU: Convergence failed at  37  side 1    Res =  0.3931E+02
 MRCHDU: Convergence failed at  38  side 1    Res =  0.3309E+02
 MRCHDU: Convergence failed at  39  side 1    Res =  0.3841E+02
 MRCHDU: Convergence failed at  40  side 1    Res =  0.3452E+02
 MRCHDU: Convergence failed at  41  side 1    Res =  0.3969E+02
 MRCHDU: Convergence failed at  42  side 1    Res =  0.4480E+02
 MRCHDU: Convergence failed at  43  side 1    Res =  0.3405E+02
 MRCHDU: Convergence failed at  44  side 1    Res =  0.4024E+02
 MRCHDU: Convergence failed at  45  side 1    Res =  0.4446E+02
 MRCHDU: Convergence failed at  46  side 1    Res =  0.4025E+02
 MRCHDU: Convergence failed at  47  side 1    Res =  0.4546E+02
 MRCHDU: Convergence failed at  48  side 1    Res =  0.4979E+02
 MRCHDU: Convergence failed at  49  side 1    Res =  0.5395E+02
 MRCHDU: Convergence failed at  50  side 1    Res =  0.4053E+02
 MRCHDU: Convergence failed at  51  side 1    Res =  0.4303E+02
 MRCHDU: Convergence failed at  52  side 1    Res =  0.4558E+02
 MRCHDU: Convergence failed at  53  side 1    Res =  0.4844E+02
 MRCHDU: Convergence failed at  54  side 1    Res =  0.5099E+02
 MRCHDU: Convergence failed at  55  side 1    Res =  0.5367E+02
 MRCHDU: Convergence failed at  56  side 1    Res =  0.5620E+02
 MRCHDU: Convergence failed at  57  side 1    Res =  0.4836E+02
 MRCHDU: Convergence failed at  58  side 1    Res =  0.5018E+02
 MRCHDU: Convergence failed at  59  side 1    Res =  0.5183E+02
 MRCHDU: Convergence failed at  60  side 1    Res =  0.5327E+02
 MRCHDU: Convergence failed at  61  side 1    Res =  0.5470E+02
 MRCHDU: Convergence failed at  62  side 1    Res =  0.5565E+02
 MRCHDU: Convergence failed at  63  side 1    Res =  0.5656E+02
 MRCHDU: Convergence failed at  64  side 1    Res =  0.5697E+02
 MRCHDU: Convergence failed at  65  side 1    Res =  0.8023E+02
 MRCHDU: Convergence failed at  66  side 1    Res =  0.7936E+02
 MRCHDU: Convergence failed at  67  side 1    Res =  0.4254E+04
 MRCHDU: Convergence failed at  68  side 1    Res =  0.9159E+02
 MRCHDU: Convergence failed at  69  side 1    Res =  0.3988E+02
 MRCHDU: Convergence failed at  70  side 1    Res =  0.3701E+02
 MRCHDU: Convergence failed at  71  side 1    Res =  0.9524E+03
 MRCHDU: Convergence failed at  72  side 1    Res =  0.3471E+03
 MRCHDU: Convergence failed at  73  side 1    Res =  0.1024E+04
 MRCHDU: Convergence failed at  74  side 1    Res =  0.1843E+03
 MRCHDU: Convergence failed at  75  side 1    Res =  0.4155E+03
 MRCHDU: Convergence failed at  76  side 1    Res =  0.6881E+04
 MRCHDU: Convergence failed at  77  side 1    Res =  0.5227E+03
 MRCHDU: Convergence failed at  78  side 1    Res =  0.2732E+03
 MRCHDU: Convergence failed at  79  side 1    Res =  0.1822E+03
 MRCHDU: Convergence failed at  80  side 1    Res =  0.1353E+03
 MRCHDU: Convergence failed at  81  side 1    Res =  0.1090E+03
 MRCHDU: Convergence failed at  82  side 1    Res =  0.8348E+02
 Side 1  free  transition at x/c =  0.0263   25
 Side 2 forced transition at x/c =  0.9999   62

   2   rms: 0.3172E+01   max: 0.1728E+02   D at   64  2   RLX: 0.035
       a =  7.000      CL =  4.9012
      Cm = -1.1967     CD =  0.00419   =>   CDf =  0.00134    CDp =  0.00284

 MRCHDU: Convergence failed at  54  side 1    Res =  0.3577E+00
 MRCHDU: Convergence failed at  55  side 1    Res =  0.3634E+00
 MRCHDU: Convergence failed at  56  side 1    Res =  0.3727E+00
 MRCHDU: Convergence failed at  57  side 1    Res =  0.3844E+00
 MRCHDU: Convergence failed at  58  side 1    Res =  0.3942E+00
 MRCHDU: Convergence failed at  59  side 1    Res =  0.4107E+00
 MRCHDU: Convergence failed at  60  side 1    Res =  0.4272E+00
 MRCHDU: Convergence failed at  61  side 1    Res =  0.4435E+00
 MRCHDU: Convergence failed at  62  side 1    Res =  0.4608E+00
 MRCHDU: Convergence failed at  63  side 1    Res =  0.4781E+00
 MRCHDU: Convergence failed at  64  side 1    Res =  0.4965E+00
 MRCHDU: Convergence failed at  65  side 1    Res =  0.5153E+00
 MRCHDU: Convergence failed at  66  side 1    Res =  0.5342E+00
 MRCHDU: Convergence failed at  67  side 1    Res =  0.5538E+00
 MRCHDU: Convergence failed at  68  side 1    Res =  0.5735E+00
 MRCHDU: Convergence failed at  69  side 1    Res =  0.5929E+00
 MRCHDU: Convergence failed at  70  side 1    Res =  0.6189E+00
 MRCHDU: Convergence failed at  71  side 1    Res =  0.6197E+00
 MRCHDU: Convergence failed at  72  side 1    Res =  0.6266E+00
 MRCHDU: Convergence failed at  73  side 1    Res =  0.6339E+00
 MRCHDU: Convergence failed at  74  side 1    Res =  0.6444E+00
 MRCHDU: Convergence failed at  75  side 1    Res =  0.6577E+00
 MRCHDU: Convergence failed at  76  side 1    Res =  0.6736E+00
 MRCHDU: Convergence failed at  77  side 1    Res =  0.6919E+00
 MRCHDU: Convergence failed at  78  side 1    Res =  0.7134E+00
 MRCHDU: Convergence failed at  79  side 1    Res =  0.7399E+00
 MRCHDU: Convergence failed at  80  side 1    Res =  0.7689E+00
 MRCHDU: Convergence failed at  81  side 1    Res =  0.7990E+00
 MRCHDU: Convergence failed at  82  side 1    Res =  0.8324E+00
 Side 1  free  transition at x/c =  0.0257   25
 Side 2 forced transition at x/c =  0.9999   62
 idif Ue xi dudx           1  0.12018397      4.97257710E-03   24.169353    
 Uenew xinew           2  1.27464794E-02  5.27381897E-04

   3   rms: 0.8934E+00   max: 0.2103E+01   D at   71  2   RLX: 0.133
       a =  7.000      CL =  2.8488
      Cm = -0.5871     CD =  0.05552   =>   CDf =  0.00248    CDp =  0.05304

 Side 1  free  transition at x/c =  0.0264   24
 Side 2 forced transition at x/c =  0.9999   63

   4   rms: 0.7319E+00   max: -.1027E+01   T at    2  2   RLX: 0.271
       a =  7.000      CL =  2.2153
      Cm = -0.4000     CD =  0.08532   =>   CDf =  0.00227    CDp =  0.08305

 Side 1  free  transition at x/c =  0.0288   25
 Side 2 forced transition at x/c =  0.9999   63
 idif Ue xi dudx           1  0.17752758      6.53982162E-03   27.145630    
 Uenew xinew           2  6.99302033E-02  2.57611275E-03

   5   rms: 0.7182E+00   max: 0.5284E+00   D at   69  2   RLX: 0.337
       a =  7.000      CL =  1.6470
      Cm = -0.2676     CD =  0.10163   =>   CDf =  0.00277    CDp =  0.09887

 Side 1  free  transition at x/c =  0.0320   24
 Side 2 forced transition at x/c =  0.9999   64

   6   rms: 0.5162E+00   max: -.1690E+01   T at   24  1   RLX: 0.296
       a =  7.000      CL =  1.4114
      Cm = -0.1978     CD =  0.09565   =>   CDf =  0.00265    CDp =  0.09300

 Side 1  free  transition at x/c =  0.0362   25
 Side 2 forced transition at x/c =  0.9999   64
 idif Ue xi dudx           1  0.20194873      6.46400452E-03   31.242046    
 Uenew xinew           2  9.06206965E-02  2.90060043E-03

   7   rms: 0.3816E+01   max: 0.1179E+02   D at   25  1   RLX: 0.074
       a =  7.000      CL =  1.0239
      Cm = -0.1302     CD =  0.13557   =>   CDf =  0.00294    CDp =  0.13263

 Side 1  free  transition at x/c =  0.0391   24
 Side 2 forced transition at x/c =  0.9999   65

   8   rms: 0.2635E+00   max: -.6957E+00   D at   31  1   RLX: 0.719
       a =  7.000      CL =  0.9176
      Cm = -0.0811     CD =  0.08312   =>   CDf =  0.00281    CDp =  0.08031

 Side 1  free  transition at x/c =  0.0382   24
 Side 2 forced transition at x/c =  0.9999   65

   9   rms: 0.2294E+00   max: 0.1239E+01   T at   24  1   RLX: 0.860
       a =  7.000      CL =  0.9958
      Cm = -0.0627     CD =  0.07030   =>   CDf =  0.00252    CDp =  0.06778

 Side 1  free  transition at x/c =  0.0327   24
 Side 2 forced transition at x/c =  0.9999   64

  10   rms: 0.1531E+00   max: -.9128E+00   T at   25  1   RLX: 0.548
       a =  7.000      CL =  1.0444
      Cm = -0.0749     CD =  0.08218   =>   CDf =  0.00272    CDp =  0.07946

 Side 1  free  transition at x/c =  0.0319   24
 Side 2 forced transition at x/c =  0.9999   64

  11   rms: 0.2391E+00   max: 0.6814E+00   T at   24  1   RLX: 0.740
       a =  7.000      CL =  1.0734
      Cm = -0.0589     CD =  0.06392   =>   CDf =  0.00268    CDp =  0.06124

 Side 1  free  transition at x/c =  0.0295   24
 Side 2 forced transition at x/c =  0.9999   64

  12   rms: 0.1343E+01   max: 0.3384E+01   T at   24  1   RLX: 0.172
       a =  7.000      CL =  1.1323
      Cm = -0.0610     CD =  0.04932   =>   CDf =  0.00303    CDp =  0.04629

 Side 1  free  transition at x/c =  0.0273   24
 Side 2 forced transition at x/c =  0.9999   63

  13   rms: 0.3233E+00   max: -.8827E+00   D at   69  1   RLX: 0.566
       a =  7.000      CL =  1.2118
      Cm = -0.0683     CD =  0.04059   =>   CDf =  0.00396    CDp =  0.03662

 Side 1  free  transition at x/c =  0.0260   24
 Side 2 forced transition at x/c =  0.9999   63

  14   rms: 0.3114E+00   max: -.8619E+00   D at   69  1   RLX: 0.580
       a =  7.000      CL =  1.2596
      Cm = -0.0738     CD =  0.03375   =>   CDf =  0.00426    CDp =  0.02948

 Side 1  free  transition at x/c =  0.0254   25
 Side 2 forced transition at x/c =  0.9999   62

  15   rms: 0.9732E-01   max: 0.3746E+00   C at   62  2
       a =  7.000      CL =  1.2492
      Cm = -0.0741     CD =  0.03157   =>   CDf =  0.00567    CDp =  0.02589
 VISCAL:  Convergence failed
 Calculating wake trajectory ...
 Calculating source influence matrix ...

 Solving BL system ...

 Side 1  free  transition at x/c =  0.0258   25
 Side 2 forced transition at x/c =  0.9999   62

   1   rms: 0.9382E-01   max: 0.3272E+00   T at   25  1
       a =  7.500      CL =  1.2703
      Cm = -0.0686     CD =  0.03780   =>   CDf =  0.00636    CDp =  0.03144

 Side 1  free  transition at x/c =  0.0238   25
 Side 2 forced transition at x/c =  0.9999   62

   2   rms: 0.8818E-01   max: -.2458E+00   D at   30  1
       a =  7.500      CL =  1.2789
      Cm = -0.0701     CD =  0.03584   =>   CDf =  0.00537    CDp =  0.03048

 Side 1  free  transition at x/c =  0.0238   25
 Side 2 forced transition at x/c =  0.9999   62

   3   rms: 0.1526E-01   max: 0.7693E-01   D at   27  1
       a =  7.500      CL =  1.2706
      Cm = -0.0691     CD =  0.03686   =>   CDf =  0.00599    CDp =  0.03088

 Side 1  free  transition at x/c =  0.0239   25
 Side 2 forced transition at x/c =  0.9999   62

   4   rms: 0.8181E-03   max: 0.4830E-02   D at   26  1
       a =  7.500      CL =  1.2705
      Cm = -0.0691     CD =  0.03686   =>   CDf =  0.00594    CDp =  0.03092

 Side 1  free  transition at x/c =  0.0239   25
 Side 2 forced transition at x/c =  0.9999   62

   5   rms: 0.1281E-04   max: -.1111E-03   C at   62  2
       a =  7.500      CL =  1.2705
      Cm = -0.0691     CD =  0.03686   =>   CDf =  0.00594    CDp =  0.03092
 Calculating wake trajectory ...
 Calculating source influence matrix ...

 Solving BL system ...

 Side 1  free  transition at x/c =  0.0239   25
 Side 2 forced transition at x/c =  0.9999   62

   1   rms: 0.8168E-01   max: 0.4723E+00   T at   25  1
       a =  8.000      CL =  1.3023
      Cm = -0.0660     CD =  0.03991   =>   CDf =  0.00594    CDp =  0.03397

 Side 1  free  transition at x/c =  0.0225   24
 Side 2 forced transition at x/c =  0.9999   62

   2   rms: 0.3064E-01   max: 0.1987E+00   D at   25  1
       a =  8.000      CL =  1.2869
      Cm = -0.0645     CD =  0.04264   =>   CDf =  0.00521    CDp =  0.03743

 Side 1  free  transition at x/c =  0.0225   24
 Side 2 forced transition at x/c =  0.9999   62

   3   rms: 0.1067E-01   max: 0.2996E-01   D at   28  1
       a =  8.000      CL =  1.2875
      Cm = -0.0645     CD =  0.04254   =>   CDf =  0.00547    CDp =  0.03707

 Side 1  free  transition at x/c =  0.0225   24
 Side 2 forced transition at x/c =  0.9999   62

   4   rms: 0.2465E-03   max: -.6475E-03   D at   82  1
       a =  8.000      CL =  1.2873
      Cm = -0.0645     CD =  0.04252   =>   CDf =  0.00537    CDp =  0.03715

 Side 1  free  transition at x/c =  0.0225   24
 Side 2 forced transition at x/c =  0.9999   62

   5   rms: 0.2635E-05   max: -.8904E-05   T at   24  1
       a =  8.000      CL =  1.2873
      Cm = -0.0645     CD =  0.04252   =>   CDf =  0.00537    CDp =  0.03715
 Calculating wake trajectory ...
 Calculating source influence matrix ...

 Solving BL system ...

 Side 1  free  transition at x/c =  0.0225   24
 Side 2 forced transition at x/c =  0.9999   62

   1   rms: 0.1057E+00   max: 0.3225E+00   D at   70  1
       a =  8.500      CL =  1.2892
      Cm = -0.0579     CD =  0.04950   =>   CDf =  0.00495    CDp =  0.04455

 Side 1  free  transition at x/c =  0.0219   25
 Side 2 forced transition at x/c =  0.9999   61
 idif Ue xi dudx           1  9.93510485E-02  5.05721569E-03   19.645405    
 Uenew xinew           2  5.99530176E-04  3.05175781E-05

   2   rms: 0.4364E+00   max: -.7256E+01   T at    2  1   RLX: 0.069
       a =  8.500      CL =  1.2932
      Cm = -0.0600     CD =  0.05001   =>   CDf =  0.00449    CDp =  0.04552

 Side 1  free  transition at x/c =  0.0219   24
 Side 2 forced transition at x/c =  0.9999   62

   3   rms: 0.8033E-01   max: -.1255E+01   D at    2  2   RLX: 0.398
       a =  8.500      CL =  1.2863
      Cm = -0.0590     CD =  0.05020   =>   CDf =  0.00412    CDp =  0.04608

 Side 1  free  transition at x/c =  0.0220   24
 Side 2 forced transition at x/c =  0.9999   62

   4   rms: 0.1526E-01   max: 0.5814E-01   D at   24  1
       a =  8.500      CL =  1.2752
      Cm = -0.0575     CD =  0.05067   =>   CDf =  0.00421    CDp =  0.04646

 Side 1  free  transition at x/c =  0.0221   24
 Side 2 forced transition at x/c =  0.9999   62

   5   rms: 0.8163E-03   max: 0.2496E-02   D at   64  2
       a =  8.500      CL =  1.2748
      Cm = -0.0575     CD =  0.05078   =>   CDf =  0.00435    CDp =  0.04643

 Side 1  free  transition at x/c =  0.0221   24
 Side 2 forced transition at x/c =  0.9999   62

   6   rms: 0.1389E-04   max: -.1138E-03   C at   62  2
       a =  8.500      CL =  1.2748
      Cm = -0.0575     CD =  0.05078   =>   CDf =  0.00435    CDp =  0.04643
 Calculating wake trajectory ...
 Calculating source influence matrix ...

 Solving BL system ...

 Side 1  free  transition at x/c =  0.0221   24
 Side 2 forced transition at x/c =  0.9999   62

   1   rms: 0.1126E+00   max: 0.3914E+00   D at   70  1
       a =  9.000      CL =  1.2482
      Cm = -0.0501     CD =  0.06028   =>   CDf =  0.00436    CDp =  0.05593

 Side 1  free  transition at x/c =  0.0221   24
 Side 2 forced transition at x/c =  0.9999   62

   2   rms: 0.4174E-01   max: -.1738E+00   D at   70  1
       a =  9.000      CL =  1.2334
      Cm = -0.0486     CD =  0.05830   =>   CDf =  0.00338    CDp =  0.05492

 Side 1  free  transition at x/c =  0.0221   24
 Side 2 forced transition at x/c =  0.9999   62

   3   rms: 0.4961E-02   max: -.4096E-01   C at   62  2
       a =  9.000      CL =  1.2346
      Cm = -0.0499     CD =  0.05947   =>   CDf =  0.00368    CDp =  0.05579

 Side 1  free  transition at x/c =  0.0222   24
 Side 2 forced transition at x/c =  0.9999   62

   4   rms: 0.4207E-03   max: -.1520E-02   D at   71  1
       a =  9.000      CL =  1.2345
      Cm = -0.0499     CD =  0.05945   =>   CDf =  0.00366    CDp =  0.05578

 Side 1  free  transition at x/c =  0.0222   24
 Side 2 forced transition at x/c =  0.9999   62

   5   rms: 0.4031E-04   max: 0.1347E-03   D at   60  1
       a =  9.000      CL =  1.2345
      Cm = -0.0499     CD =  0.05945   =>   CDf =  0.00367    CDp =  0.05578
 Calculating wake trajectory ...
 Calculating source influence matrix ...

 Solving BL system ...

 Side 1  free  transition at x/c =  0.0222   24
 Side 2 forced transition at x/c =  0.9999   62

   1   rms: 0.1032E+00   max: 0.3835E+00   D at   70  1   RLX: 0.933
       a =  9.500      CL =  1.1897
      Cm = -0.0443     CD =  0.06861   =>   CDf =  0.00368    CDp =  0.06494

 Side 1  free  transition at x/c =  0.0223   24
 Side 2 forced transition at x/c =  0.9999   62

   2   rms: 0.2129E-01   max: 0.1537E+00   D at   75  1
       a =  9.500      CL =  1.1822
      Cm = -0.0478     CD =  0.06984   =>   CDf =  0.00318    CDp =  0.06666

 Side 1  free  transition at x/c =  0.0224   24
 Side 2 forced transition at x/c =  0.9999   62

   3   rms: 0.2917E-02   max: 0.2184E-01   D at   73  1
       a =  9.500      CL =  1.1829
      Cm = -0.0481     CD =  0.06998   =>   CDf =  0.00322    CDp =  0.06676

 Side 1  free  transition at x/c =  0.0224   24
 Side 2 forced transition at x/c =  0.9999   62

   4   rms: 0.4151E-03   max: -.1384E-02   D at   49  1
       a =  9.500      CL =  1.1828
      Cm = -0.0481     CD =  0.06991   =>   CDf =  0.00321    CDp =  0.06670

 Side 1  free  transition at x/c =  0.0224   24
 Side 2 forced transition at x/c =  0.9999   62

   5   rms: 0.5094E-04   max: 0.1569E-03   D at   37  1
       a =  9.500      CL =  1.1828
      Cm = -0.0481     CD =  0.06992   =>   CDf =  0.00321    CDp =  0.06671
 Calculating wake trajectory ...
 Calculating source influence matrix ...

 Solving BL system ...

 Side 1  free  transition at x/c =  0.0224   24
 Side 2 forced transition at x/c =  0.9999   62

   1   rms: 0.1241E+00   max: 0.4373E+00   D at   70  1   RLX: 0.775
       a = 10.000      CL =  1.1447
      Cm = -0.0523     CD =  0.08220   =>   CDf =  0.00322    CDp =  0.07898

 Side 1  free  transition at x/c =  0.0226   24
 Side 2 forced transition at x/c =  0.9999   62

   2   rms: 0.6989E-01   max: 0.2857E+00   D at   65  1
       a = 10.000      CL =  1.1348
      Cm = -0.0634     CD =  0.09028   =>   CDf =  0.00297    CDp =  0.08731

 Side 1  free  transition at x/c =  0.0228   24
 Side 2 forced transition at x/c =  0.9999   62

   3   rms: 0.1527E-01   max: 0.8094E-01   D at   52  1
       a = 10.000      CL =  1.1355
      Cm = -0.0643     CD =  0.08992   =>   CDf =  0.00291    CDp =  0.08702

 Side 1  free  transition at x/c =  0.0228   24
 Side 2 forced transition at x/c =  0.9999   62

   4   rms: 0.4247E-02   max: -.1729E-01   D at   51  1
       a = 10.000      CL =  1.1346
      Cm = -0.0634     CD =  0.08893   =>   CDf =  0.00289    CDp =  0.08605

 Side 1  free  transition at x/c =  0.0228   24
 Side 2 forced transition at x/c =  0.9999   62

   5   rms: 0.8737E-03   max: 0.3241E-02   D at   41  1
       a = 10.000      CL =  1.1348
      Cm = -0.0636     CD =  0.08917   =>   CDf =  0.00290    CDp =  0.08627

 Side 1  free  transition at x/c =  0.0228   24
 Side 2 forced transition at x/c =  0.9999   62

   6   rms: 0.1554E-03   max: -.5687E-03   D at   40  1
       a = 10.000      CL =  1.1348
      Cm = -0.0636     CD =  0.08913   =>   CDf =  0.00289    CDp =  0.08624

 Side 1  free  transition at x/c =  0.0228   24
 Side 2 forced transition at x/c =  0.9999   62

   7   rms: 0.2834E-04   max: 0.1032E-03   D at   40  1
       a = 10.000      CL =  1.1348
      Cm = -0.0636     CD =  0.08914   =>   CDf =  0.00289    CDp =  0.08625

.OPERv   c>  
 Solving BL system ...

 Side 1  free  transition at x/c =  0.0228   24
 Side 2 forced transition at x/c =  0.9999   62

   1   rms: 0.5040E-05   max: -.1711E-04   D at   40  1
       a = 10.000      CL =  1.1348
      Cm = -0.0636     CD =  0.08914   =>   CDf =  0.00289    CDp =  0.08624

.OPERv   c>  
.OPERv   c>  
Enter flap hinge x location   r>  
  Top    surface:  y =  0.0160     y/t = 1.0
  Bottom surface:  y = -0.0160     y/t = 0.0

Enter flap hinge y location (or 999 to specify y/t)   r>  
 Flap hinge x,y :  0.7000  0.0000
                                           2  2
 Hinge moment/span = 0.017935  x  1/2 rho V  c 
                                           2   
 x-Force     /span = 0.015321  x  1/2 rho V  c 
                                           2   
 y-Force     /span = 0.159018  x  1/2 rho V  c 


.OPERv   c>  
 Solving BL system ...

 Side 1  free  transition at x/c =  0.0228   24
 Side 2 forced transition at x/c =  0.9999   62

   1   rms: 0.5260E-06   max: 0.4932E-05   C at   62  2
       a = 10.000      CL =  1.1348
      Cm = -0.0636     CD =  0.08914   =>   CDf =  0.00289    CDp =  0.08624
 Calculating wake trajectory ...
 Calculating source influence matrix ...

 Solving BL system ...

 Side 1  free  transition at x/c =  0.0228   24
 Side 2 forced transition at x/c =  0.9999   62

   1   rms: 0.1867E+00   max: 0.5538E+00   D at   48  1   RLX: 0.678
       a = 10.500      CL =  1.1089
      Cm = -0.0792     CD =  0.11096   =>   CDf =  0.00290    CDp =  0.10806

 Side 1  free  transition at x/c =  0.0232   25
 Side 2 forced transition at x/c =  0.9999   62

   2   rms: 0.1035E+01   max: 0.2748E+01   D at   47  1   RLX: 0.546
       a = 10.500      CL =  1.3350
      Cm = -0.0651     CD =  0.08161   =>   CDf =  0.00518    CDp =  0.07643

 MRCHDU: Convergence failed at  27  side 1    Res =  0.1305E+02
 MRCHDU: Convergence failed at  28  side 1    Res =  0.6161E+03
 MRCHDU: Convergence failed at  29  side 1    Res =  0.1812E+02
 MRCHDU: Convergence failed at  30  side 1    Res =  0.3926E+02
 MRCHDU: Convergence failed at  31  side 1    Res =  0.1518E+03
 MRCHDU: Convergence failed at  32  side 1    Res =  0.3755E+03
 MRCHDU: Convergence failed at  33  side 1    Res =  0.3459E+04
 MRCHDU: Convergence failed at  34  side 1    Res =  0.3758E+03
 MRCHDU: Convergence failed at  35  side 1    Res =  0.1165E+04
 MRCHDU: Convergence failed at  36  side 1    Res =  0.3467E+03
 MRCHDU: Convergence failed at  37  side 1    Res =  0.7365E+02
 MRCHDU: Convergence failed at  38  side 1    Res =  0.2020E+03
 MRCHDU: Convergence failed at  39  side 1    Res =  0.3458E+03
 MRCHDU: Convergence failed at  40  side 1    Res =  0.4659E+03
 MRCHDU: Convergence failed at  41  side 1    Res =  0.6643E+03
 MRCHDU: Convergence failed at  42  side 1    Res =  0.2873E+03
 MRCHDU: Convergence failed at  43  side 1    Res =  0.2853E+03
 MRCHDU: Convergence failed at  44  side 1    Res =  0.1297E+03
 MRCHDU: Convergence failed at  45  side 1    Res =  0.1944E+03
 MRCHDU: Convergence failed at  46  side 1    Res =  0.2144E+03
 MRCHDU: Convergence failed at  47  side 1    Res =  0.2516E+03
 MRCHDU: Convergence failed at  48  side 1    Res =  0.2849E+03
 MRCHDU: Convergence failed at  49  side 1    Res =  0.3142E+03
 MRCHDU: Convergence failed at  50  side 1    Res =  0.3435E+03
 MRCHDU: Convergence failed at  51  side 1    Res =  0.3772E+03
 MRCHDU: Convergence failed at  52  side 1    Res =  0.4140E+03
 MRCHDU: Convergence failed at  53  side 1    Res =  0.4803E+03
 MRCHDU: Convergence failed at  54  side 1    Res =  0.5403E+03
 MRCHDU: Convergence failed at  55  side 1    Res =  0.6093E+03
 MRCHDU: Convergence failed at  56  side 1    Res =  0.6931E+03
 MRCHDU: Convergence failed at  57  side 1    Res =  0.7959E+03
 MRCHDU: Convergence failed at  58  side 1    Res =  0.9172E+03
 MRCHDU: Convergence failed at  59  side 1    Res =  0.1074E+04
 MRCHDU: Convergence failed at  60  side 1    Res =  0.1272E+04
 MRCHDU: Convergence failed at  61  side 1    Res =  0.1530E+04
 MRCHDU: Convergence failed at  62  side 1    Res =  0.1888E+04
 MRCHDU: Convergence failed at  63  side 1    Res =  0.2378E+04
 MRCHDU: Convergence failed at  64  side 1    Res =  0.3146E+04
 MRCHDU: Convergence failed at  65  side 1    Res =  0.4332E+04
 MRCHDU: Convergence failed at  66  side 1    Res =  0.6364E+04
 MRCHDU: Convergence failed at  67  side 1    Res =  0.2225E+03
 MRCHDU: Convergence failed at  68  side 1    Res =  0.8183E+04
 MRCHDU: Convergence failed at  69  side 1    Res =  0.7096E+04
 MRCHDU: Convergence failed at  70  side 1    Res =  0.7724E+04
 MRCHDU: Convergence failed at  71  side 1    Res =  0.7449E+04
 MRCHDU: Convergence failed at  72  side 1    Res =  0.3197E+04
 MRCHDU: Convergence failed at  73  side 1    Res =  0.3611E+03
 MRCHDU: Convergence failed at  74  side 1    Res =  0.3541E+03
 MRCHDU: Convergence failed at  75  side 1    Res =  0.3355E+03
 MRCHDU: Convergence failed at  76  side 1    Res =  0.3227E+03
 MRCHDU: Convergence failed at  77  side 1    Res =  0.3126E+03
 MRCHDU: Convergence failed at  78  side 1    Res =  0.3033E+03
 MRCHDU: Convergence failed at  79  side 1    Res =  0.2926E+03
 MRCHDU: Convergence failed at  80  side 1    Res =  0.2791E+03
 MRCHDU: Convergence failed at  81  side 1    Res =  0.2633E+03
 MRCHDU: Convergence failed at  82  side 1    Res =  0.2479E+03
 MRCHDU: Convergence failed at  83  side 1    Res =  0.2231E+03
 Side 1  free  transition at x/c =  0.0285   27
 Side 2 forced transition at x/c =  0.9999   61

   3   rms: 0.4375E+01   max: -.3142E+02   T at   27  1   RLX: 0.016
       a = 10.500      CL =  5.7282
      Cm = -1.4175     CD =  0.00350   =>   CDf =  0.00087    CDp =  0.00263

 Side 1  free  transition at x/c =  0.0303   27
 Side 2 forced transition at x/c =  0.9999   61

   4   rms: 0.2314E+01   max: -.2153E+02   T at   27  1   RLX: 0.023
       a = 10.500      CL =  4.7836
      Cm = -1.1052     CD =  0.11693   =>   CDf =  0.00210    CDp =  0.11483

 Side 1  free  transition at x/c =  0.0299   27
 Side 2 forced transition at x/c =  0.9999   61

   5   rms: 0.1321E+01   max: 0.6168E+01   D at   67  2   RLX: 0.198
       a = 10.500      CL =  4.2576
      Cm = -0.9692     CD =  0.14945   =>   CDf =  0.00214    CDp =  0.14731

 MRCHDU: Convergence failed at  74  side 2    Res =  0.9213E+01
 MRCHDU: Convergence failed at  75  side 2    Res =  0.2107E+01
 MRCHDU: Convergence failed at  76  side 2    Res =  0.3125E+01
 MRCHDU: Convergence failed at  77  side 2    Res =  0.1704E+02
 MRCHDU: Convergence failed at  78  side 2    Res =  0.5069E+01
 MRCHDU: Convergence failed at  79  side 2    Res =  0.2016E+01
 Side 1  free  transition at x/c =  0.0301   27
 Side 2 forced transition at x/c =  0.9999   61
 idif Ue xi dudx           1  0.12068717      5.91313839E-03   20.410004    
 Uenew xinew           2  1.80922486E-02  8.86440277E-04

   6   rms: 0.1824E+01   max: 0.4949E+01   C at   61  2   RLX: 0.126
       a = 10.500      CL =  3.6009
      Cm = -0.8113     CD =  0.18495   =>   CDf =  0.00290    CDp =  0.18206

 Side 1  free  transition at x/c =  0.0301   26
 Side 2 forced transition at x/c =  0.9999   62
 idif Ue xi dudx           1  0.10086381      4.80818748E-03   20.977512    
 Uenew xinew           2  7.61467498E-03  3.62992287E-04

   7   rms: 0.1440E+01   max: 0.3969E+01   C at   62  2   RLX: 0.158
       a = 10.500      CL =  2.9947
      Cm = -0.6648     CD =  0.20599   =>   CDf =  0.00295    CDp =  0.20304

 Side 1  free  transition at x/c =  0.0301   25
 Side 2 forced transition at x/c =  0.9999   63

   8   rms: 0.1339E+01   max: -.6603E+01   D at    2  2   RLX: 0.076
       a = 10.500      CL =  2.7465
      Cm = -0.6039     CD =  0.32551   =>   CDf =  0.00275    CDp =  0.32277

 Side 1  free  transition at x/c =  0.0301   25
 Side 2 forced transition at x/c =  0.9999   63
 idif Ue xi dudx           1  0.13200533      5.18190861E-03   25.474270    
 Uenew xinew           2  3.10327485E-02  1.21819973E-03

   9   rms: 0.1161E+01   max: -.2129E+01   T at   81  2   RLX: 0.217
       a = 10.500      CL =  2.1506
      Cm = -0.4628     CD =  0.28496   =>   CDf =  0.00305    CDp =  0.28191

 Side 1  free  transition at x/c =  0.0308   24
 Side 2 forced transition at x/c =  0.9999   64
 idif Ue xi dudx           1  0.11830802      4.11999226E-03   28.715593    
 Uenew xinew           2  1.59827601E-02  5.56588173E-04

  10   rms: 0.9010E+00   max: 0.2141E+01   C at   64  2   RLX: 0.262
       a = 10.500      CL =  1.6504
      Cm = -0.3426     CD =  0.40713   =>   CDf =  0.00307    CDp =  0.40406

 Side 1  free  transition at x/c =  0.0312   23
 Side 2 forced transition at x/c =  0.9999   65

  11   rms: 0.6814E+00   max: 0.2637E+01   C at   65  2   RLX: 0.303
       a = 10.500      CL =  1.2675
      Cm = -0.2498     CD =  0.66693   =>   CDf =  0.00287    CDp =  0.66406

 Side 1  free  transition at x/c =  0.0319   23
 Side 2 forced transition at x/c =  0.9999   65
 idif Ue xi dudx           1  0.13735904      4.02081013E-03   34.162029    
 Uenew xinew           2  2.70002186E-02  7.90357590E-04

  12   rms: 0.4917E+00   max: -.1399E+01   T at   83  2   RLX: 0.357
       a = 10.500      CL =  0.9824
      Cm = -0.1790     CD =  0.98836   =>   CDf =  0.00306    CDp =  0.98530

 Side 1  free  transition at x/c =  0.0327   22
 Side 2 forced transition at x/c =  0.9999   66

  13   rms: 0.4090E+00   max: 0.1163E+01   T at   23  1   RLX: 0.455
       a = 10.500      CL =  0.7911
      Cm = -0.1236     CD =  1.04143   =>   CDf =  0.00289    CDp =  1.03854

 Side 1  free  transition at x/c =  0.0393   24
 Side 2 forced transition at x/c =  0.9999   66

  14   rms: 0.2426E+00   max: -.9011E+00   D at   85  2   RLX: 0.555
       a = 10.500      CL =  0.6132
      Cm = -0.0556     CD =  0.39782   =>   CDf =  0.00266    CDp =  0.39515

 Side 1  free  transition at x/c =  0.0381   24
 Side 2 forced transition at x/c =  0.9999   65
 idif Ue xi dudx           1  0.11800734      3.41475010E-03   34.558117    
 Uenew xinew           2  6.36897655E-03  1.84297562E-04

  15   rms: 0.2894E+00   max: 0.1899E+01   D at   25  1   RLX: 0.384
       a = 10.500      CL =  0.5884
      Cm = -0.0481     CD =  0.27308   =>   CDf =  0.00291    CDp =  0.27016
 VISCAL:  Convergence failed
 Calculating wake trajectory ...
 Calculating source influence matrix ...

 Solving BL system ...

 Side 1  free  transition at x/c =  0.0414   24
 Side 2 forced transition at x/c =  0.9999   66

   1   rms: 0.5236E+00   max: 0.4136E+01   T at   24  1   RLX: 0.285
       a = 11.000      CL =  0.5590
      Cm = -0.0254     CD =  0.19765   =>   CDf =  0.00257    CDp =  0.19508

 MRCHDU: Convergence failed at  25  side 1    Res =  0.4449E+02
 MRCHDU: Convergence failed at  26  side 1    Res =  0.3698E+02
 MRCHDU: Convergence failed at  27  side 1    Res =  0.3716E+02
 MRCHDU: Convergence failed at  28  side 1    Res =  0.4907E+02
 MRCHDU: Convergence failed at  29  side 1    Res =  0.8177E+02
 MRCHDU: Convergence failed at  30  side 1    Res =  0.9312E+02
 MRCHDU: Convergence failed at  31  side 1    Res =  0.3445E+03
 MRCHDU: Convergence failed at  32  side 1    Res =  0.7275E+02
 MRCHDU: Convergence failed at  33  side 1    Res =  0.5334E+02
 MRCHDU: Convergence failed at  34  side 1    Res =  0.5362E+02
 MRCHDU: Convergence failed at  35  side 1    Res =  0.9737E+02
 MRCHDU: Convergence failed at  36  side 1    Res =  0.5969E+02
 MRCHDU: Convergence failed at  37  side 1    Res =  0.3063E+03
 MRCHDU: Convergence failed at  38  side 1    Res =  0.1523E+04
 MRCHDU: Convergence failed at  39  side 1    Res =  0.2134E+03
 MRCHDU: Convergence failed at  40  side 1    Res =  0.2264E+03
 MRCHDU: Convergence failed at  41  side 1    Res =  0.2838E+04
 MRCHDU: Convergence failed at  42  side 1    Res =  0.1546E+03
 MRCHDU: Convergence failed at  43  side 1    Res =  0.1144E+03
 MRCHDU: Convergence failed at  44  side 1    Res =  0.1445E+03
 MRCHDU: Convergence failed at  45  side 1    Res =  0.6741E+03
 MRCHDU: Convergence failed at  46  side 1    Res =  0.7574E+02
 MRCHDU: Convergence failed at  47  side 1    Res =  0.7277E+02
 MRCHDU: Convergence failed at  48  side 1    Res =  0.7491E+02
 MRCHDU: Convergence failed at  49  side 1    Res =  0.7507E+02
 MRCHDU: Convergence failed at  50  side 1    Res =  0.1084E+03
 MRCHDU: Convergence failed at  51  side 1    Res =  0.6775E+02
 MRCHDU: Convergence failed at  52  side 1    Res =  0.3086E+03
 MRCHDU: Convergence failed at  53  side 1    Res =  0.1637E+03
 MRCHDU: Convergence failed at  54  side 1    Res =  0.9065E+02
 MRCHDU: Convergence failed at  55  side 1    Res =  0.9438E+02
 MRCHDU: Convergence failed at  56  side 1    Res =  0.9773E+02
 MRCHDU: Convergence failed at  57  side 1    Res =  0.1016E+03
 MRCHDU: Convergence failed at  58  side 1    Res =  0.1063E+03
 MRCHDU: Convergence failed at  59  side 1    Res =  0.1121E+03
 MRCHDU: Convergence failed at  60  side 1    Res =  0.1194E+03
 MRCHDU: Convergence failed at  61  side 1    Res =  0.9101E+02
 MRCHDU: Convergence failed at  62  side 1    Res =  0.4513E+03
 MRCHDU: Convergence failed at  63  side 1    Res =  0.1908E+03
 MRCHDU: Convergence failed at  64  side 1    Res =  0.2153E+03
 MRCHDU: Convergence failed at  65  side 1    Res =  0.2578E+03
 MRCHDU: Convergence failed at  66  side 1    Res =  0.3247E+03
 MRCHDU: Convergence failed at  67  side 1    Res =  0.6727E+03
 MRCHDU: Convergence failed at  68  side 1    Res =  0.1074E+05
 MRCHDU: Convergence failed at  69  side 1    Res =  0.1280E+04
 MRCHDU: Convergence failed at  70  side 1    Res =  0.3939E+03
 MRCHDU: Convergence failed at  71  side 1    Res =  0.1599E+03
 MRCHDU: Convergence failed at  72  side 1    Res =  0.1336E+03
 MRCHDU: Convergence failed at  73  side 1    Res =  0.1122E+03
 MRCHDU: Convergence failed at  74  side 1    Res =  0.1691E+03
 MRCHDU: Convergence failed at  75  side 1    Res =  0.7106E+02
 MRCHDU: Convergence failed at  76  side 1    Res =  0.7122E+02
 MRCHDU: Convergence failed at  77  side 1    Res =  0.7573E+02
 MRCHDU: Convergence failed at  78  side 1    Res =  0.7924E+02
 MRCHDU: Convergence failed at  79  side 1    Res =  0.7837E+02
 Side 1  free  transition at x/c =  0.0355   24
 Side 2 forced transition at x/c =  0.9999   65

   2   rms: 0.1281E+01   max: 0.6750E+01   D at   67  2   RLX: 0.136
       a = 11.000      CL =  1.7203
      Cm = -0.4004     CD =  0.05290   =>   CDf =  0.00237    CDp =  0.05052

 Side 1  free  transition at x/c =  0.0387   24
 Side 2 forced transition at x/c =  0.9999   65
 idif Ue xi dudx           1  0.11607035      3.31628323E-03   35.000130    
 Uenew xinew           2  3.00408527E-03  8.58306885E-05

   3   rms: 0.5819E+00   max: 0.1974E+01   T at   25  1   RLX: 0.283
       a = 11.000      CL =  1.1251
      Cm = -0.2241     CD =  0.17160   =>   CDf =  0.00287    CDp =  0.16873

 Side 1  free  transition at x/c =  0.0391   23
 Side 2 forced transition at x/c =  0.9999   66

   4   rms: 0.4657E+00   max: -.1434E+01   T at   85  2   RLX: 0.349
       a = 11.000      CL =  0.9222
      Cm = -0.1676     CD =  0.26181   =>   CDf =  0.00279    CDp =  0.25902

 Side 1  free  transition at x/c =  0.0408   24
 Side 2 forced transition at x/c =  0.9999   66

   5   rms: 0.2430E+00   max: -.8724E+00   D at   85  2   RLX: 0.573
       a = 11.000      CL =  0.6760
      Cm = -0.0845     CD =  0.23062   =>   CDf =  0.00264    CDp =  0.22798

 Side 1  free  transition at x/c =  0.0405   25
 Side 2 forced transition at x/c =  0.9999   65

   6   rms: 0.3616E+00   max: 0.4512E+01   T at    2  1   RLX: 0.235
       a = 11.000      CL =  0.6643
      Cm = -0.0723     CD =  0.24656   =>   CDf =  0.00275    CDp =  0.24380

 Side 1  free  transition at x/c =  0.0395   25
 Side 2 forced transition at x/c =  0.9999   65

   7   rms: 0.4179E+00   max: 0.4631E+01   T at   25  1   RLX: 0.324
       a = 11.000      CL =  0.6932
      Cm = -0.0724     CD =  0.20579   =>   CDf =  0.00273    CDp =  0.20305

 Side 1  free  transition at x/c =  0.0362   24
 Side 2 forced transition at x/c =  0.9999   65

   8   rms: 0.8796E+00   max: 0.4106E+01   D at   25  1   RLX: 0.365
       a = 11.000      CL =  0.7072
      Cm = -0.0185     CD =  0.12694   =>   CDf =  0.00325    CDp =  0.12369

 Side 1  free  transition at x/c =  0.0357   25
 Side 2 forced transition at x/c =  0.9999   64

   9   rms: 0.7596E+00   max: 0.5655E+01   T at   25  1   RLX: 0.265
       a = 11.000      CL =  0.7731
      Cm =  0.0020     CD =  0.09568   =>   CDf =  0.00386    CDp =  0.09182

 MRCHDU: Convergence failed at  27  side 1    Res =  0.2701E+01
 MRCHDU: Convergence failed at  28  side 1    Res =  0.4296E+01
 MRCHDU: Convergence failed at  29  side 1    Res =  0.2247E+02
 MRCHDU: Convergence failed at  30  side 1    Res =  0.5265E+01
 MRCHDU: Convergence failed at  31  side 1    Res =  0.6888E+01
 MRCHDU: Convergence failed at  32  side 1    Res =  0.9507E+01
 MRCHDU: Convergence failed at  33  side 1    Res =  0.1373E+02
 MRCHDU: Convergence failed at  34  side 1    Res =  0.2160E+02
 MRCHDU: Convergence failed at  35  side 1    Res =  0.4165E+02
 MRCHDU: Convergence failed at  36  side 1    Res =  0.4635E+02
 MRCHDU: Convergence failed at  37  side 1    Res =  0.1804E+02
 MRCHDU: Convergence failed at  38  side 1    Res =  0.2805E+02
 MRCHDU: Convergence failed at  39  side 1    Res =  0.8669E+03
 MRCHDU: Convergence failed at  40  side 1    Res =  0.5345E+05
 MRCHDU: Convergence failed at  41  side 1    Res =  0.2978E+04
 MRCHDU: Convergence failed at  42  side 1    Res =  0.1336E+04
 MRCHDU: Convergence failed at  43  side 1    Res =  0.1605E+05
 MRCHDU: Convergence failed at  44  side 1    Res =  0.6982E+02
 MRCHDU: Convergence failed at  45  side 1    Res =  0.6781E+02
 MRCHDU: Convergence failed at  46  side 1    Res =  0.6166E+02
 MRCHDU: Convergence failed at  47  side 1    Res =  0.7519E+02
 MRCHDU: Convergence failed at  48  side 1    Res =  0.2897E+02
 MRCHDU: Convergence failed at  49  side 1    Res =  0.3131E+02
[...]
 MRCHDU: Convergence failed at  64  side 1    Res =  0.3107E+00
 MRCHDU: Convergence failed at  65  side 1    Res =  0.3045E+00
 MRCHDU: Convergence failed at  66  side 1    Res =  0.2990E+00
 MRCHDU: Convergence failed at  67  side 1    Res =  0.2934E+00
 MRCHDU: Convergence failed at  68  side 1    Res =  0.2875E+00
 MRCHDU: Convergence failed at  69  side 1    Res =  0.2818E+00
 MRCHDU: Convergence failed at  70  side 1    Res =  0.2758E+00
 MRCHDU: Convergence failed at  71  side 1    Res =  0.2702E+00
 MRCHDU: Convergence failed at  72  side 1    Res =  0.2613E+00
 MRCHDU: Convergence failed at  73  side 1    Res =  0.2554E+00
 MRCHDU: Convergence failed at  74  side 1    Res =  0.2491E+00
 MRCHDU: Convergence failed at  75  side 1    Res =  0.2449E+00
 MRCHDU: Convergence failed at  76  side 1    Res =  0.2417E+00
 MRCHDU: Convergence failed at  77  side 1    Res =  0.2393E+00
 MRCHDU: Convergence failed at  78  side 1    Res =  0.2385E+00
 MRCHDU: Convergence failed at  79  side 1    Res =  0.2389E+00
 MRCHDU: Convergence failed at  80  side 1    Res =  0.2412E+00
 MRCHDU: Convergence failed at  81  side 1    Res =  0.2452E+00
 MRCHDU: Convergence failed at  82  side 1    Res =  0.2520E+00
 MRCHDU: Convergence failed at  83  side 1    Res =  0.2773E+00
 MRCHDU: Convergence failed at  66  side 2    Res =  0.5766E+01
 Side 1  free  transition at x/c =  0.0646   31
 Side 2 forced transition at x/c =  0.9999   61

  10   rms: 0.9393E+00   max: 0.3311E+01   T at   32  1   RLX: 0.128
       a = 11.000      CL =  3.0381
      Cm = -0.5998     CD =  0.05322   =>   CDf =  0.00203    CDp =  0.05119

 TRCHEK2: N2 convergence failed.
 x:  0.34564  0.36446  0.36446  N:  8.896  9.000  9.081  Nx:   9.668   dN: 0.809E-01
 TRCHEK2: N2 convergence failed.
 x:  0.34564  0.36245  0.36446  N:  8.896  9.000  9.006  Nx:  11.494   dN:-0.218E+00
 TRCHEK2: N2 convergence failed.
 x:  0.34564  0.36446  0.36446  N:  8.896  9.000  9.086  Nx:   9.919   dN: 0.862E-01
 TRCHEK2: N2 convergence failed.
 x:  0.34564  0.35975  0.36446  N:  8.896  9.000  9.025  Nx:  11.730   dN:-0.874E-01
 TRCHEK2: N2 convergence failed.
 x:  0.34564  0.36446  0.36446  N:  8.896  9.000  9.004  Nx:   5.717   dN: 0.424E-02
 MRCHDU: Convergence failed at  46  side 1    Res =  0.2277E+03
 MRCHDU: Convergence failed at  47  side 1    Res =  0.5036E+02
 MRCHDU: Convergence failed at  48  side 1    Res =  0.1016E+04
 MRCHDU: Convergence failed at  49  side 1    Res =  0.3815E+02
 MRCHDU: Convergence failed at  50  side 1    Res =  0.2921E+02
 MRCHDU: Convergence failed at  51  side 1    Res =  0.3811E+02
 MRCHDU: Convergence failed at  52  side 1    Res =  0.3927E+02
 MRCHDU: Convergence failed at  53  side 1    Res =  0.2005E+02
 MRCHDU: Convergence failed at  54  side 1    Res =  0.4045E+02
 MRCHDU: Convergence failed at  55  side 1    Res =  0.4286E+02
 MRCHDU: Convergence failed at  56  side 1    Res =  0.4549E+02
 MRCHDU: Convergence failed at  57  side 1    Res =  0.4851E+02
 MRCHDU: Convergence failed at  58  side 1    Res =  0.4783E+02
 MRCHDU: Convergence failed at  59  side 1    Res =  0.6523E+02
 MRCHDU: Convergence failed at  60  side 1    Res =  0.7011E+02
 MRCHDU: Convergence failed at  61  side 1    Res =  0.6524E+02
 MRCHDU: Convergence failed at  62  side 1    Res =  0.6977E+02
 MRCHDU: Convergence failed at  63  side 1    Res =  0.7463E+02
 MRCHDU: Convergence failed at  64  side 1    Res =  0.8051E+02
 MRCHDU: Convergence failed at  65  side 1    Res =  0.8781E+02
 MRCHDU: Convergence failed at  66  side 1    Res =  0.9562E+02
 MRCHDU: Convergence failed at  67  side 1    Res =  0.1043E+03
 MRCHDU: Convergence failed at  68  side 1    Res =  0.1138E+03
 MRCHDU: Convergence failed at  69  side 1    Res =  0.1265E+03
 MRCHDU: Convergence failed at  70  side 1    Res =  0.1065E+03
 MRCHDU: Convergence failed at  71  side 1    Res =  0.8745E+02
 MRCHDU: Convergence failed at  72  side 1    Res =  0.1322E+03
 MRCHDU: Convergence failed at  73  side 1    Res =  0.1663E+03
 MRCHDU: Convergence failed at  74  side 1    Res =  0.1546E+03
 MRCHDU: Convergence failed at  75  side 1    Res =  0.1850E+03
 MRCHDU: Convergence failed at  76  side 1    Res =  0.2341E+03
 MRCHDU: Convergence failed at  77  side 1    Res =  0.3287E+03
 MRCHDU: Convergence failed at  78  side 1    Res =  0.5434E+03
 MRCHDU: Convergence failed at  79  side 1    Res =  0.5766E+04
 MRCHDU: Convergence failed at  80  side 1    Res =  0.5529E+03
 MRCHDU: Convergence failed at  81  side 1    Res =  0.1633E+03
 MRCHDU: Convergence failed at  82  side 1    Res =  0.9370E+02
 MRCHDU: Convergence failed at  83  side 1    Res =  0.4582E+02
 Side 1  free  transition at x/c =  0.3118   46
 Side 2 forced transition at x/c =  0.9999   61

  11   rms: 0.1459E+02   max: 0.1983E+03   C at   46  1   RLX: 0.005
       a = 11.000      CL =  4.9435
      Cm = -1.2077     CD =  0.00901   =>   CDf =  0.00098    CDp =  0.00803

 Side 1  free  transition at x/c =  0.3133   46
 Side 2 forced transition at x/c =  0.9999   61

  12   rms: 0.9321E+01   max: 0.1150E+03   T at   46  1   RLX: 0.006
       a = 11.000      CL =  4.4130
      Cm = -0.9828     CD =  0.08293   =>   CDf =  0.00161    CDp =  0.08132

 Side 1  free  transition at x/c =  0.3064   46
 Side 2 forced transition at x/c =  0.9999   61

  13   rms: 0.4276E+01   max: -.3282E+02   T at   46  1   RLX: 0.015
       a = 11.000      CL =  4.2977
      Cm = -0.9752     CD =  0.09157   =>   CDf =  0.00166    CDp =  0.08991

 Side 1  free  transition at x/c =  0.0633   31
 Side 2 forced transition at x/c =  0.9999   61

  14   rms: 0.7934E+01   max: -.1049E+03   T at   32  1   RLX: 0.005
       a = 11.000      CL =  4.0231
      Cm = -0.9286     CD =  0.12258   =>   CDf =  0.00218    CDp =  0.12040

 Side 1  free  transition at x/c =  0.0622   31
 Side 2 forced transition at x/c =  0.9999   61
 idif Ue xi dudx           1  0.15948153      7.74717331E-03   20.585770    
 Uenew xinew           2  5.60030751E-02  2.72047520E-03

  15   rms: 0.1617E+01   max: 0.3948E+01   D at   71  2   RLX: 0.145
       a = 11.000      CL =  3.4264
      Cm = -0.7871     CD =  0.08337   =>   CDf =  0.00251    CDp =  0.08086
 VISCAL:  Convergence failed
 Calculating wake trajectory ...
 Calculating source influence matrix ...

 Solving BL system ...

 Side 1  free  transition at x/c =  0.0629   30
 Side 2 forced transition at x/c =  0.9999   62

   1   rms: 0.1960E+01   max: 0.1883E+02   T at   31  1   RLX: 0.030
       a = 11.500      CL =  3.2881
      Cm = -0.7523     CD =  0.20878   =>   CDf =  0.00238    CDp =  0.20640

 Side 1  free  transition at x/c =  0.0576   30
 Side 2 forced transition at x/c =  0.9999   62

   2   rms: 0.1947E+02   max: -.3374E+03   T at   30  1   RLX: 0.001
       a = 11.500      CL =  3.3059
      Cm = -0.7608     CD =  0.24550   =>   CDf =  0.00240    CDp =  0.24310

 Side 1  free  transition at x/c =  0.0569   30
 Side 2 forced transition at x/c =  0.9999   62
 idif Ue xi dudx           1  0.13500091      6.33609295E-03   21.306650    
 Uenew xinew           2  4.02886979E-02  1.89089775E-03

   3   rms: 0.1577E+01   max: 0.4845E+01   T at   30  1   RLX: 0.118
       a = 11.500      CL =  2.8588
      Cm = -0.6550     CD =  0.40303   =>   CDf =  0.00269    CDp =  0.40034

 Side 1  free  transition at x/c =  0.0392   26
 Side 2 forced transition at x/c =  0.9999   63
 idif Ue xi dudx           1  0.10062324      4.41133976E-03   22.810131    
 Uenew xinew           2  1.02105187E-02  4.47630882E-04

   4   rms: 0.1308E+01   max: -.3690E+01   T at   80  2   RLX: 0.135
       a = 11.500      CL =  2.3766
      Cm = -0.5394     CD =  1.05168   =>   CDf =  0.00282    CDp =  1.04886

 Side 1  free  transition at x/c =  0.0424   26
 Side 2 forced transition at x/c =  0.9999   64

   5   rms: 0.1221E+01   max: 0.1656E+02   T at   26  1   RLX: 0.091
       a = 11.500      CL =  2.1921
      Cm = -0.4883     CD =  2.66406   =>   CDf =  0.00262    CDp =  2.66144

 Side 1  free  transition at x/c =  0.0371   25
 Side 2 forced transition at x/c =  0.9999   64

   6   rms: 0.1879E+01   max: 0.3284E+02   T at   25  1   RLX: 0.042
       a = 11.500      CL =  2.1482
      Cm = -0.4775     CD =  4.00644   =>   CDf =  0.00266    CDp =  4.00378

 Side 1  free  transition at x/c =  0.0346   25
 Side 2 forced transition at x/c =  0.9999   64

   7   rms: 0.9678E+00   max: -.3946E+01   T at   81  2   RLX: 0.127
       a = 11.500      CL =  1.9217
      Cm = -0.4216     CD =  5.76984   =>   CDf =  0.00267    CDp =  5.76717

 Side 1  free  transition at x/c =  0.0329   24
 Side 2 forced transition at x/c =  0.9999   64

   8   rms: 0.9346E+00   max: -.4677E+01   T at   80  2   RLX: 0.107
       a = 11.500      CL =  1.7432
      Cm = -0.3785     CD =  4.00581   =>   CDf =  0.00272    CDp =  4.00309

 Side 1  free  transition at x/c =  0.0329   24
 Side 2 forced transition at x/c =  0.9999   64
 idif Ue xi dudx           1  0.11086100      3.85057926E-03   28.790733    
 Uenew xinew           2  8.26798379E-03  2.87175179E-04

   9   rms: 0.1072E+01   max: 0.1252E+02   C at   81  2   RLX: 0.118
       a = 11.500      CL =  1.5555
      Cm = -0.3310     CD =  1.36042   =>   CDf =  0.00294    CDp =  1.35749

 Side 1  free  transition at x/c =  0.0331   24
 Side 2 forced transition at x/c =  0.9999   65

  10   rms: 0.8738E+00   max: -.4886E+01   T at   81  2   RLX: 0.102
       a = 11.500      CL =  1.4136
      Cm = -0.2951     CD =  1.01441   =>   CDf =  0.00274    CDp =  1.01167

 Side 1  free  transition at x/c =  0.0345   24
 Side 2 forced transition at x/c =  0.9999   65

  11   rms: 0.6286E+01   max: 0.6544E+02   T at   24  1   RLX: 0.023
       a = 11.500      CL =  1.4771
      Cm = -0.3005     CD =  1.10124   =>   CDf =  0.00256    CDp =  1.09868

 MRCHDU: Convergence failed at  25  side 1    Res =  0.9309E+02
 Side 1  free  transition at x/c =  0.0318   24
 Side 2 forced transition at x/c =  0.9999   64

  12   rms: 0.8378E+00   max: -.7075E+01   T at   80  2   RLX: 0.071
       a = 11.500      CL =  1.6684
      Cm = -0.3518     CD =  1.23848   =>   CDf =  0.00274    CDp =  1.23574

 Side 1  free  transition at x/c =  0.0323   24
 Side 2 forced transition at x/c =  0.9999   64
 idif Ue xi dudx           1  0.11147294      3.62455845E-03   30.754902    
 Uenew xinew           2  1.88079651E-03  6.11543655E-05

  13   rms: 0.7731E+00   max: -.5693E+01   T at   80  2   RLX: 0.088
       a = 11.500      CL =  1.5606
      Cm = -0.3260     CD =  1.62609   =>   CDf =  0.00297    CDp =  1.62312

 Side 1  free  transition at x/c =  0.0328   23
 Side 2 forced transition at x/c =  0.9999   65

  14   rms: 0.7207E+00   max: -.3868E+01   T at   81  2   RLX: 0.129
       a = 11.500      CL =  1.4113
      Cm = -0.2863     CD =  2.22568   =>   CDf =  0.00279    CDp =  2.22289

 Side 1  free  transition at x/c =  0.0335   24
 Side 2 forced transition at x/c =  0.9999   65
 idif Ue xi dudx           1  0.10530185      3.24571133E-03   32.443382    
 Uenew xinew           2  4.95046726E-04  1.52587891E-05

  15   rms: 0.8329E+00   max: 0.2025E+01   D at   25  1   RLX: 0.251
       a = 11.500      CL =  1.1241
      Cm = -0.2217     CD =  3.51176   =>   CDf =  0.00300    CDp =  3.50876
 VISCAL:  Convergence failed
 Calculating wake trajectory ...
 Calculating source influence matrix ...

 Solving BL system ...

 Side 1  free  transition at x/c =  0.0380   23
 Side 2 forced transition at x/c =  0.9999   66

   1   rms: 0.7053E+00   max: -.9075E+01   D at    2  2   RLX: 0.055
       a = 12.000      CL =  0.9964
      Cm = -0.1881     CD =  6.17337   =>   CDf =  0.00283    CDp =  6.17054

 Side 1  free  transition at x/c =  0.0383   23
 Side 2 forced transition at x/c =  0.9999   66

   2   rms: 0.4438E+00   max: -.2020E+01   T at   81  2   RLX: 0.248
       a = 12.000      CL =  0.8788
      Cm = -0.1571     CD =  4.98446   =>   CDf =  0.00283    CDp =  4.98163

 Side 1  free  transition at x/c =  0.0396   24
 Side 2 forced transition at x/c =  0.9999   66

   3   rms: 0.4199E+00   max: 0.1993E+01   T at   24  1   RLX: 0.327
       a = 12.000      CL =  0.7640
      Cm = -0.1194     CD =  4.90170   =>   CDf =  0.00267    CDp =  4.89902

 Side 1  free  transition at x/c =  0.0388   24
 Side 2 forced transition at x/c =  0.9999   65

   4   rms: 0.5520E+00   max: -.7443E+01   T at   24  1   RLX: 0.067
       a = 12.000      CL =  0.7452
      Cm = -0.1076     CD =  5.55217   =>   CDf =  0.00281    CDp =  5.54935

 Side 1  free  transition at x/c =  0.0389   24
 Side 2 forced transition at x/c =  0.9999   65

   5   rms: 0.3210E+00   max: -.2096E+01   T at   82  2   RLX: 0.239
       a = 12.000      CL =  0.7251
      Cm = -0.1006     CD =  4.98158   =>   CDf =  0.00281    CDp =  4.97878

 Side 1  free  transition at x/c =  0.0391   24
 Side 2 forced transition at x/c =  0.9999   65

   6   rms: 0.2696E+00   max: -.1261E+01   T at   82  2   RLX: 0.397
       a = 12.000      CL =  0.6859
      Cm = -0.0867     CD =  3.68164   =>   CDf =  0.00280    CDp =  3.67885

 Side 1  free  transition at x/c =  0.0496   26
 Side 2 forced transition at x/c =  0.9999   65

   7   rms: 0.1187E+01   max: 0.1564E+02   T at   26  1   RLX: 0.096
       a = 12.000      CL =  0.5783
      Cm = -0.0416     CD =  3.34777   =>   CDf =  0.00273    CDp =  3.34504

 MRCHDU: Convergence failed at  26  side 1    Res =  0.4080E+02
 MRCHDU: Convergence failed at  27  side 1    Res =  0.8736E+02
 MRCHDU: Convergence failed at  28  side 1    Res =  0.1447E+03
 MRCHDU: Convergence failed at  29  side 1    Res =  0.4275E+02
 MRCHDU: Convergence failed at  30  side 1    Res =  0.1041E+03
 MRCHDU: Convergence failed at  31  side 1    Res =  0.3583E+03
 MRCHDU: Convergence failed at  32  side 1    Res =  0.1438E+03
 MRCHDU: Convergence failed at  33  side 1    Res =  0.5056E+02
 MRCHDU: Convergence failed at  34  side 1    Res =  0.7676E+02
 MRCHDU: Convergence failed at  35  side 1    Res =  0.1288E+03
 MRCHDU: Convergence failed at  36  side 1    Res =  0.1705E+03
 MRCHDU: Convergence failed at  37  side 1    Res =  0.4585E+04
 MRCHDU: Convergence failed at  38  side 1    Res =  0.1654E+03
 MRCHDU: Convergence failed at  39  side 1    Res =  0.1171E+03
 MRCHDU: Convergence failed at  40  side 1    Res =  0.7607E+02
 MRCHDU: Convergence failed at  41  side 1    Res =  0.5826E+02
 MRCHDU: Convergence failed at  42  side 1    Res =  0.5770E+03
 MRCHDU: Convergence failed at  43  side 1    Res =  0.8876E+02
 MRCHDU: Convergence failed at  44  side 1    Res =  0.8304E+02
 MRCHDU: Convergence failed at  45  side 1    Res =  0.8625E+02
 MRCHDU: Convergence failed at  46  side 1    Res =  0.9459E+02
 MRCHDU: Convergence failed at  47  side 1    Res =  0.1501E+03
 MRCHDU: Convergence failed at  48  side 1    Res =  0.1540E+03
 MRCHDU: Convergence failed at  49  side 1    Res =  0.1612E+03
 MRCHDU: Convergence failed at  50  side 1    Res =  0.2118E+03
 MRCHDU: Convergence failed at  51  side 1    Res =  0.3920E+03
 MRCHDU: Convergence failed at  52  side 1    Res =  0.1099E+04
 MRCHDU: Convergence failed at  53  side 1    Res =  0.3411E+04
 MRCHDU: Convergence failed at  54  side 1    Res =  0.5233E+03
 MRCHDU: Convergence failed at  55  side 1    Res =  0.2865E+03
 MRCHDU: Convergence failed at  56  side 1    Res =  0.3373E+03
 MRCHDU: Convergence failed at  57  side 1    Res =  0.1104E+03
 MRCHDU: Convergence failed at  58  side 1    Res =  0.8584E+02
 MRCHDU: Convergence failed at  59  side 1    Res =  0.8735E+02
 MRCHDU: Convergence failed at  60  side 1    Res =  0.5803E+02
 MRCHDU: Convergence failed at  61  side 1    Res =  0.6187E+02
 MRCHDU: Convergence failed at  62  side 1    Res =  0.6486E+02
 MRCHDU: Convergence failed at  63  side 1    Res =  0.8305E+02
 MRCHDU: Convergence failed at  64  side 1    Res =  0.9814E+02
 MRCHDU: Convergence failed at  65  side 1    Res =  0.1367E+03
 MRCHDU: Convergence failed at  66  side 1    Res =  0.2302E+03
 MRCHDU: Convergence failed at  67  side 1    Res =  0.6995E+06
 MRCHDU: Convergence failed at  68  side 1    Res =  0.2246E+03
 MRCHDU: Convergence failed at  69  side 1    Res =  0.1182E+03
 MRCHDU: Convergence failed at  70  side 1    Res =  0.6785E+02
 MRCHDU: Convergence failed at  71  side 1    Res =  0.5133E+02
 MRCHDU: Convergence failed at  72  side 1    Res =  0.7036E+02
 MRCHDU: Convergence failed at  73  side 1    Res =  0.9504E+02
 MRCHDU: Convergence failed at  74  side 1    Res =  0.1917E+03
 MRCHDU: Convergence failed at  75  side 1    Res =  0.4944E+03
 MRCHDU: Convergence failed at  76  side 1    Res =  0.9678E+02
 MRCHDU: Convergence failed at  77  side 1    Res =  0.5218E+02
 MRCHDU: Convergence failed at  78  side 1    Res =  0.4291E+02
 MRCHDU: Convergence failed at  79  side 1    Res =  0.5408E+02
 Side 1  free  transition at x/c =  0.0386   24
 Side 2 forced transition at x/c =  0.9999   65

   8   rms: 0.1245E+01   max: 0.1685E+02   T at   25  1   RLX: 0.049
       a = 12.000      CL =  1.6693
      Cm = -0.3855     CD =  2.00501   =>   CDf =  0.00260    CDp =  2.00241

 Side 1  free  transition at x/c =  0.0384   24
 Side 2 forced transition at x/c =  0.9999   65

   9   rms: 0.5512E+00   max: 0.1525E+01   C at   65  2   RLX: 0.428
       a = 12.000      CL =  1.0014
      Cm = -0.1898     CD =  2.98788   =>   CDf =  0.00275    CDp =  2.98513

 Side 1  free  transition at x/c =  0.0384   24
 Side 2 forced transition at x/c =  0.9999   65
 idif Ue xi dudx           1  0.11387997      3.41856480E-03   33.312218    
 Uenew xinew           2  6.26643654E-03  1.88112259E-04

  10   rms: 0.3429E+00   max: -.1586E+01   T at   82  2   RLX: 0.315
       a = 12.000      CL =  0.8523
      Cm = -0.1464     CD =  4.04152   =>   CDf =  0.00292    CDp =  4.03860

 Side 1  free  transition at x/c =  0.0388   23
 Side 2 forced transition at x/c =  0.9999   66

  11   rms: 0.2910E+00   max: -.2039E+01   T at   83  2   RLX: 0.245
       a = 12.000      CL =  0.7863
      Cm = -0.1261     CD =  4.04298   =>   CDf =  0.00278    CDp =  4.04020

 MRCHDU: Convergence failed at  84  side 2    Res =  0.8762E-02
 Side 1  free  transition at x/c =  0.0390   23
 Side 2 forced transition at x/c =  0.9999   66

  12   rms: 0.2791E+00   max: -.2460E+01   T at   83  2   RLX: 0.203
       a = 12.000      CL =  0.7413
      Cm = -0.1117     CD =  2.61952   =>   CDf =  0.00262    CDp =  2.61689

 Side 1  free  transition at x/c =  0.0392   24
 Side 2 forced transition at x/c =  0.9999   65

  13   rms: 0.4487E+00   max: 0.5587E+01   T at    2  1   RLX: 0.123
       a = 12.000      CL =  0.7279
      Cm = -0.1055     CD =  1.80815   =>   CDf =  0.00274    CDp =  1.80541

 Side 1  free  transition at x/c =  0.0392   24
 Side 2 forced transition at x/c =  0.9999   65

  14   rms: 0.3294E+00   max: -.5524E+01   T at   82  2   RLX: 0.091
       a = 12.000      CL =  0.7220
      Cm = -0.1021     CD =  1.96697   =>   CDf =  0.00274    CDp =  1.96423

 Side 1  free  transition at x/c =  0.0763   28
 Side 2 forced transition at x/c =  0.9999   65
 idif Ue xi dudx           1  0.13948213      4.18436527E-03   33.334118    
 Uenew xinew           2  3.17978412E-02  9.53912735E-04

  15   rms: 0.3391E+01   max: 0.1477E+02   T at   28  1   RLX: 0.034
       a = 12.000      CL =  0.7482
      Cm = -0.1143     CD =  2.27886   =>   CDf =  0.00281    CDp =  2.27605
 VISCAL:  Convergence failed

 Sequence halted since previous  4 points did not converge
 Last-converged  alpha =  10.000    CL =   1.13480

.OPERva   c>  
 Polar accumulation disabled

.OPERv   c>  
        airfoil                    Re           Mach       Ncrit  XtripT  XtripB     file
       ------------------------  ------------  ----------  -----  ------  ------    -------------------
    1  HT 14                     2.430e5       0.000        9.00   1.000   1.000    

Enter polar output filename   s>  
 Output file exists.  Overwrite?  Y

.OPERv   c>  
 XFOIL   c>  
 XFOIL   c>  