
 ===================================================
  XFOIL Version 6.99
  Copyright (C) 2000   Mark Drela, Harold Youngren

  This software comes with ABSOLUTELY NO WARRANTY,
    subject to the GNU General Public License.

  Caveat computor
 ===================================================

 File  xfoil.def  not found

   QUIT    Exit program

  .OPER    Direct operating point(s)
  .MDES    Complex mapping design routine
  .QDES    Surface speed design routine
  .GDES    Geometry design routine

   SAVE f  Write airfoil to labeled coordinate file
   PSAV f  Write airfoil to plain coordinate file
   ISAV f  Write airfoil to ISES coordinate file
   MSAV f  Write airfoil to MSES coordinate file
   REVE    Reverse written-airfoil node ordering

   LOAD f  Read buffer airfoil from coordinate file
   NACA i  Set NACA 4,5-digit airfoil and buffer airfoil
   INTE    Set buffer airfoil by interpolating two airfoils
   NORM    Buffer airfoil normalization toggle
   XYCM rr Change CM reference location, currently  0.25000 0.00000

   BEND    Display structural properties of current airfoil

   PCOP    Set current-airfoil panel nodes directly from buffer airfoil points
   PANE    Set current-airfoil panel nodes ( 160 ) based on curvature
  .PPAR    Show/change paneling

  .PLOP    Plotting options

   WDEF f  Write  current-settings file
   RDEF f  Reread current-settings file
   NAME s  Specify new airfoil name
   NINC    Increment name version number

   Z       Zoom    | (available in all menus)
   U       Unzoom  | 

 XFOIL   c>  
 Labeled airfoil file.  Name:  AG 36                                           

 Number of input coordinate points: 183
 Counterclockwise ordering
 Max thickness =     0.081827  at x =   0.277
 Max camber    =     0.029337  at x =   0.443

  LE  x,y  =   0.00001   0.02651  |   Chord =   0.99882
  TE  x,y  =   0.99791  -0.01604  |

 Current airfoil nodes set from buffer airfoil nodes ( 183 )

 XFOIL   c>  
.OPERi   c>  
Enter Reynolds number   r>  
 M  =    0.0000
 Re =    243000

.OPERv   c>   Calculating unit vorticity distributions ...
 Calculating wake trajectory ...
 Calculating source influence matrix ...

 Solving BL system ...

 Initializing BL ...
    side            1  ...
 MRCHUE: Inverse mode at  51     Hk =   3.957
 MRCHUE: Inverse mode at  52     Hk =   4.350
 MRCHUE: Inverse mode at  53     Hk =   4.735
 MRCHUE: Inverse mode at  54     Hk =   5.110
 MRCHUE: Inverse mode at  55     Hk =   5.489
 MRCHUE: Inverse mode at  56     Hk =   5.874
 MRCHUE: Inverse mode at  57     Hk =   6.258
 MRCHUE: Inverse mode at  58     Hk =   6.639
 MRCHUE: Inverse mode at  59     Hk =   7.018
 MRCHUE: Inverse mode at  60     Hk =   7.395
 MRCHUE: Inverse mode at  61     Hk =   7.769
 MRCHUE: Inverse mode at  62     Hk =   8.026
 MRCHUE: Inverse mode at  63     Hk =   6.216
 MRCHUE: Inverse mode at  64     Hk =   4.995
 MRCHUE: Inverse mode at  65     Hk =   4.077
 MRCHUE: Inverse mode at  66     Hk =   3.344
    side            2  ...
 MRCHUE: Inverse mode at  66     Hk =   3.937
 MRCHUE: Inverse mode at  67     Hk =   4.227
 MRCHUE: Inverse mode at  68     Hk =   4.512
 MRCHUE: Inverse mode at  69     Hk =   4.794
 MRCHUE: Inverse mode at  70     Hk =   4.937
 MRCHUE: Convergence failed at  71  side 2    Res =  0.4487E+01
 MRCHUE: Inverse mode at  72     Hk =   5.040
 MRCHUE: Inverse mode at  73     Hk =   5.246
 MRCHUE: Inverse mode at  88     Hk =   2.799

 Side 1  free  transition at x/c =  0.5738   62
 Side 2 forced transition at x/c =  0.9999   88

   1   rms: 0.1386E+00   max: -.1248E+01   T at   62  1   RLX: 0.401
       a =  0.000      CL =  0.7123
      Cm = -0.1006     CD =  0.01140   =>   CDf =  0.00696    CDp =  0.00443

 MRCHDU: Convergence failed at  65  side 1    Res =  0.2948E+02
 MRCHDU: Convergence failed at  66  side 1    Res =  0.6932E+01
 Side 1  free  transition at x/c =  0.6006   64
 Side 2 forced transition at x/c =  0.9999   88

   2   rms: 0.7715E-01   max: 0.5403E+00   D at   67  1   RLX: 0.966
       a =  0.000      CL =  0.7089
      Cm = -0.1015     CD =  0.00974   =>   CDf =  0.00665    CDp =  0.00309

 Side 1  free  transition at x/c =  0.6559   69
 Side 2 forced transition at x/c =  0.9999   88
 idif Ue xi dudx           1  0.22183314      1.71053410E-03   129.68648    
 Uenew xinew           2  6.29215175E-03  4.85181808E-05

   3   rms: 0.5251E-01   max: -.6741E+00   C at   69  1   RLX: 0.742
       a =  0.000      CL =  0.6951
      Cm = -0.0984     CD =  0.00838   =>   CDf =  0.00605    CDp =  0.00233

 Side 1  free  transition at x/c =  0.6635   68
 Side 2 forced transition at x/c =  0.9999   89

   4   rms: 0.2441E-01   max: -.3027E+00   C at   68  1
       a =  0.000      CL =  0.6859
      Cm = -0.0960     CD =  0.00847   =>   CDf =  0.00585    CDp =  0.00261

 Side 1  free  transition at x/c =  0.6766   70
 Side 2 forced transition at x/c =  0.9999   89

   5   rms: 0.2127E-02   max: -.3267E-01   D at   69  1
       a =  0.000      CL =  0.6858
      Cm = -0.0960     CD =  0.00846   =>   CDf =  0.00571    CDp =  0.00275

 Side 1  free  transition at x/c =  0.6743   69
 Side 2 forced transition at x/c =  0.9999   89

   6   rms: 0.7787E-03   max: 0.1158E-01   C at   69  1
       a =  0.000      CL =  0.6858
      Cm = -0.0961     CD =  0.00845   =>   CDf =  0.00569    CDp =  0.00276

 Side 1  free  transition at x/c =  0.6737   69
 Side 2 forced transition at x/c =  0.9999   89

   7   rms: 0.3351E-05   max: -.4253E-04   C at   69  1
       a =  0.000      CL =  0.6858
      Cm = -0.0961     CD =  0.00845   =>   CDf =  0.00570    CDp =  0.00275

.OPERv   c>  
  Top    surface:  y =  0.0263     y/t = 1.0
  Bottom surface:  y =  0.0261     y/t = 0.0

 Flap hinge x,y :  0.0000  0.0000
                                           2  2
 Hinge moment/span = 0.267607  x  1/2 rho V  c 
                                           2   
 x-Force     /span = -.006308  x  1/2 rho V  c 
                                           2   
 y-Force     /span = 0.685848  x  1/2 rho V  c 


.OPERv   c>   Calculating wake trajectory ...
 Calculating source influence matrix ...

 Solving BL system ...

 Side 1  free  transition at x/c =  0.6737   69
 Side 2 forced transition at x/c =  0.9999   89

   1   rms: 0.2333E+00   max: 0.2767E+01   C at   69  1   RLX: 0.542
       a =  1.000      CL =  0.7397
      Cm = -0.0945     CD =  0.00918   =>   CDf =  0.00560    CDp =  0.00358

 Side 1  free  transition at x/c =  0.5951   64
 Side 2 forced transition at x/c =  0.9999   88

   2   rms: 0.8299E-01   max: -.4891E+00   D at   65  1
       a =  1.000      CL =  0.7879
      Cm = -0.0940     CD =  0.00972   =>   CDf =  0.00623    CDp =  0.00348

 Side 1  free  transition at x/c =  0.5606   62
 Side 2 forced transition at x/c =  0.9999   87

   3   rms: 0.1714E-01   max: -.2521E+00   D at   63  1
       a =  1.000      CL =  0.7864
      Cm = -0.0937     CD =  0.01005   =>   CDf =  0.00645    CDp =  0.00360

 Side 1  free  transition at x/c =  0.5638   63
 Side 2 forced transition at x/c =  0.9999   87

   4   rms: 0.3228E-02   max: -.5356E-01   D at   62  1
       a =  1.000      CL =  0.7867
      Cm = -0.0938     CD =  0.00999   =>   CDf =  0.00639    CDp =  0.00360

 Side 1  free  transition at x/c =  0.5630   63
 Side 2 forced transition at x/c =  0.9999   87

   5   rms: 0.3840E-03   max: 0.4881E-02   C at   63  1
       a =  1.000      CL =  0.7868
      Cm = -0.0938     CD =  0.00999   =>   CDf =  0.00637    CDp =  0.00362

 Side 1  free  transition at x/c =  0.5629   63
 Side 2 forced transition at x/c =  0.9999   87

   6   rms: 0.1789E-05   max: -.1469E-04   D at   65  1
       a =  1.000      CL =  0.7868
      Cm = -0.0938     CD =  0.00999   =>   CDf =  0.00637    CDp =  0.00361

.OPERv   c>  
 Flap hinge x,y :  0.0000  0.0000
                                           2  2
 Hinge moment/span = 0.290549  x  1/2 rho V  c 
                                           2   
 x-Force     /span = -.017418  x  1/2 rho V  c 
                                           2   
 y-Force     /span = 0.786697  x  1/2 rho V  c 


.OPERv   c>   Calculating wake trajectory ...
 Calculating source influence matrix ...

 Solving BL system ...

 Side 1  free  transition at x/c =  0.5629   63
 Side 2 forced transition at x/c =  0.9999   87

   1   rms: 0.1987E+00   max: 0.1275E+01   C at   63  1   RLX: 0.571
       a =  2.000      CL =  0.8451
      Cm = -0.0928     CD =  0.01092   =>   CDf =  0.00638    CDp =  0.00455

 Side 1  free  transition at x/c =  0.5188   59
 Side 2 forced transition at x/c =  0.9999   87

   2   rms: 0.8576E-01   max: -.4276E+00   D at   60  1
       a =  2.000      CL =  0.8911
      Cm = -0.0924     CD =  0.01069   =>   CDf =  0.00635    CDp =  0.00434

 Side 1  free  transition at x/c =  0.4762   57
 Side 2 forced transition at x/c =  0.9999   86

   3   rms: 0.2203E-01   max: -.3318E+00   D at   58  1
       a =  2.000      CL =  0.8890
      Cm = -0.0921     CD =  0.01115   =>   CDf =  0.00661    CDp =  0.00454

 Side 1  free  transition at x/c =  0.4823   58
 Side 2 forced transition at x/c =  0.9999   86

   4   rms: 0.2693E-02   max: 0.3876E-01   D at   58  1
       a =  2.000      CL =  0.8895
      Cm = -0.0922     CD =  0.01111   =>   CDf =  0.00652    CDp =  0.00459

 Side 1  free  transition at x/c =  0.4813   57
 Side 2 forced transition at x/c =  0.9999   86

   5   rms: 0.2592E-03   max: 0.4695E-02   D at   58  1
       a =  2.000      CL =  0.8895
      Cm = -0.0922     CD =  0.01110   =>   CDf =  0.00652    CDp =  0.00459

 Side 1  free  transition at x/c =  0.4811   57
 Side 2 forced transition at x/c =  0.9999   86

   6   rms: 0.2838E-05   max: -.3305E-04   D at   58  1
       a =  2.000      CL =  0.8895
      Cm = -0.0922     CD =  0.01110   =>   CDf =  0.00651    CDp =  0.00459

.OPERv   c>  
 Flap hinge x,y :  0.0000  0.0000
                                           2  2
 Hinge moment/span = 0.314580  x  1/2 rho V  c 
                                           2   
 x-Force     /span = -.037143  x  1/2 rho V  c 
                                           2   
 y-Force     /span = 0.889007  x  1/2 rho V  c 


.OPERv   c>   Calculating wake trajectory ...
 Calculating source influence matrix ...

 Solving BL system ...

 Side 1  free  transition at x/c =  0.4811   57
 Side 2 forced transition at x/c =  0.9999   86

   1   rms: 0.1824E+00   max: 0.8680E+00   T at   57  1   RLX: 0.820
       a =  3.000      CL =  0.9770
      Cm = -0.0915     CD =  0.01133   =>   CDf =  0.00632    CDp =  0.00501

 Side 1  free  transition at x/c =  0.3803   50
 Side 2 forced transition at x/c =  0.9999   85

   2   rms: 0.6824E-01   max: -.5958E+00   D at   52  1   RLX: 0.839
       a =  3.000      CL =  0.9864
      Cm = -0.0899     CD =  0.01193   =>   CDf =  0.00687    CDp =  0.00506

 Side 1  free  transition at x/c =  0.3675   49
 Side 2 forced transition at x/c =  0.9999   85

   3   rms: 0.1234E-01   max: -.2108E+00   D at   52  1
       a =  3.000      CL =  0.9877
      Cm = -0.0899     CD =  0.01232   =>   CDf =  0.00671    CDp =  0.00561

 Side 1  free  transition at x/c =  0.3585   49
 Side 2 forced transition at x/c =  0.9999   85

   4   rms: 0.2191E-02   max: -.2924E-01   C at   49  1
       a =  3.000      CL =  0.9874
      Cm = -0.0898     CD =  0.01236   =>   CDf =  0.00675    CDp =  0.00561

 Side 1  free  transition at x/c =  0.3592   49
 Side 2 forced transition at x/c =  0.9999   85

   5   rms: 0.2430E-04   max: -.3795E-03   D at   53  1
       a =  3.000      CL =  0.9874
      Cm = -0.0898     CD =  0.01236   =>   CDf =  0.00674    CDp =  0.00562

.OPERv   c>  
 Flap hinge x,y :  0.0000  0.0000
                                           2  2
 Hinge moment/span = 0.336571  x  1/2 rho V  c 
                                           2   
 x-Force     /span = -.060607  x  1/2 rho V  c 
                                           2   
 y-Force     /span = 0.985982  x  1/2 rho V  c 


.OPERv   c>   Calculating wake trajectory ...
 Calculating source influence matrix ...

 Solving BL system ...

 Side 1  free  transition at x/c =  0.3592   49
 Side 2 forced transition at x/c =  0.9999   85

   1   rms: 0.2395E+00   max: 0.2662E+01   C at   49  1   RLX: 0.385
       a =  4.000      CL =  1.0228
      Cm = -0.0887     CD =  0.01315   =>   CDf =  0.00675    CDp =  0.00640

 Side 1  free  transition at x/c =  0.3036   45
 Side 2 forced transition at x/c =  0.9999   85

   2   rms: 0.1348E+00   max: -.8191E+00   D at   45  1   RLX: 0.610
       a =  4.000      CL =  1.0572
      Cm = -0.0876     CD =  0.01419   =>   CDf =  0.00676    CDp =  0.00742

 Side 1  free  transition at x/c =  0.2456   41
 Side 2 forced transition at x/c =  0.9999   84

   3   rms: 0.6327E-01   max: -.6145E+00   D at   42  1   RLX: 0.814
       a =  4.000      CL =  1.0772
      Cm = -0.0874     CD =  0.01418   =>   CDf =  0.00722    CDp =  0.00696

 Side 1  free  transition at x/c =  0.2165   39
 Side 2 forced transition at x/c =  0.9999   84

   4   rms: 0.1763E-01   max: -.2454E+00   D at   42  1
       a =  4.000      CL =  1.0782
      Cm = -0.0870     CD =  0.01467   =>   CDf =  0.00729    CDp =  0.00737

 Side 1  free  transition at x/c =  0.2115   38
 Side 2 forced transition at x/c =  0.9999   84

   5   rms: 0.1453E-02   max: -.2303E-01   D at   42  1
       a =  4.000      CL =  1.0781
      Cm = -0.0870     CD =  0.01468   =>   CDf =  0.00731    CDp =  0.00737

 Side 1  free  transition at x/c =  0.2113   38
 Side 2 forced transition at x/c =  0.9999   84

   6   rms: 0.1253E-04   max: -.2012E-03   D at   42  1
       a =  4.000      CL =  1.0781
      Cm = -0.0870     CD =  0.01468   =>   CDf =  0.00730    CDp =  0.00737

.OPERv   c>  
 Flap hinge x,y :  0.0000  0.0000
                                           2  2
 Hinge moment/span = 0.356157  x  1/2 rho V  c 
                                           2   
 x-Force     /span = -.086430  x  1/2 rho V  c 
                                           2   
 y-Force     /span = 1.075453  x  1/2 rho V  c 


.OPERv   c>   Calculating wake trajectory ...
 Calculating source influence matrix ...

 Solving BL system ...

 Side 1  free  transition at x/c =  0.2113   38
 Side 2 forced transition at x/c =  0.9999   84

   1   rms: 0.2103E+00   max: 0.1663E+01   C at   38  1   RLX: 0.464
       a =  5.000      CL =  1.1237
      Cm = -0.0862     CD =  0.01553   =>   CDf =  0.00704    CDp =  0.00849

 Side 1  free  transition at x/c =  0.1516   35
 Side 2 forced transition at x/c =  0.9999   83

   2   rms: 0.1166E+00   max: -.4368E+00   D at   36  1   RLX: 0.529
       a =  5.000      CL =  1.1475
      Cm = -0.0849     CD =  0.01693   =>   CDf =  0.00759    CDp =  0.00934

 Side 1  free  transition at x/c =  0.1237   32
 Side 2 forced transition at x/c =  0.9999   83

   3   rms: 0.7984E-01   max: -.7550E+00   D at   33  1   RLX: 0.662
       a =  5.000      CL =  1.1652
      Cm = -0.0849     CD =  0.01669   =>   CDf =  0.00762    CDp =  0.00907

 Side 1  free  transition at x/c =  0.1021   30
 Side 2 forced transition at x/c =  0.9999   83

   4   rms: 0.3143E-01   max: -.2615E+00   C at   30  1
       a =  5.000      CL =  1.1665
      Cm = -0.0840     CD =  0.01748   =>   CDf =  0.00771    CDp =  0.00976

 Side 1  free  transition at x/c =  0.0864   29
 Side 2 forced transition at x/c =  0.9999   83

   5   rms: 0.1284E-01   max: -.1765E+00   D at   29  1
       a =  5.000      CL =  1.1644
      Cm = -0.0838     CD =  0.01771   =>   CDf =  0.00780    CDp =  0.00991

 Side 1  free  transition at x/c =  0.0865   29
 Side 2 forced transition at x/c =  0.9999   83

   6   rms: 0.1124E-02   max: 0.1868E-01   C at   29  1
       a =  5.000      CL =  1.1642
      Cm = -0.0838     CD =  0.01776   =>   CDf =  0.00779    CDp =  0.00996

 Side 1  free  transition at x/c =  0.0862   29
 Side 2 forced transition at x/c =  0.9999   83

   7   rms: 0.9526E-05   max: -.7080E-04   D at   30  1
       a =  5.000      CL =  1.1641
      Cm = -0.0838     CD =  0.01775   =>   CDf =  0.00780    CDp =  0.00996

.OPERv   c>  
 Flap hinge x,y :  0.0000  0.0000
                                           2  2
 Hinge moment/span = 0.374103  x  1/2 rho V  c 
                                           2   
 x-Force     /span = -.114451  x  1/2 rho V  c 
                                           2   
 y-Force     /span = 1.159700  x  1/2 rho V  c 


.OPERv   c>  
 Solving BL system ...

 Side 1  free  transition at x/c =  0.0862   29
 Side 2 forced transition at x/c =  0.9999   83

   1   rms: 0.4037E-06   max: -.3082E-05   D at   29  1
       a =  5.000      CL =  1.1641
      Cm = -0.0838     CD =  0.01775   =>   CDf =  0.00780    CDp =  0.00996
 Calculating wake trajectory ...
 Calculating source influence matrix ...

 Solving BL system ...

 Side 1  free  transition at x/c =  0.0862   29
 Side 2 forced transition at x/c =  0.9999   83

   1   rms: 0.1682E+00   max: 0.1861E+01   C at   29  1   RLX: 0.369
       a =  5.500      CL =  1.1784
      Cm = -0.0829     CD =  0.01862   =>   CDf =  0.00780    CDp =  0.01082

 Side 1  free  transition at x/c =  0.0665   27
 Side 2 forced transition at x/c =  0.9999   83

   2   rms: 0.1141E+00   max: 0.1217E+01   T at   27  1   RLX: 0.631
       a =  5.500      CL =  1.1930
      Cm = -0.0815     CD =  0.01973   =>   CDf =  0.00795    CDp =  0.01178

 Side 1  free  transition at x/c =  0.0479   25
 Side 2 forced transition at x/c =  0.9999   83

   3   rms: 0.4550E-01   max: -.4537E+00   C at   25  1
       a =  5.500      CL =  1.1990
      Cm = -0.0806     CD =  0.02042   =>   CDf =  0.00777    CDp =  0.01264

 Side 1  free  transition at x/c =  0.0409   26
 Side 2 forced transition at x/c =  0.9999   82
 idif Ue xi dudx           1  0.11799061      4.20868397E-03   28.035038    
 Uenew xinew           2  3.77650169E-04  1.34706497E-05

   4   rms: 0.2011E-01   max: -.3521E+00   D at    2  1
       a =  5.500      CL =  1.1972
      Cm = -0.0805     CD =  0.02053   =>   CDf =  0.00835    CDp =  0.01218

 Side 1  free  transition at x/c =  0.0412   25
 Side 2 forced transition at x/c =  0.9999   83

   5   rms: 0.5906E-02   max: 0.1071E+00   T at    2  2
       a =  5.500      CL =  1.1972
      Cm = -0.0805     CD =  0.02055   =>   CDf =  0.00810    CDp =  0.01245

 Side 1  free  transition at x/c =  0.0412   25
 Side 2 forced transition at x/c =  0.9999   83

   6   rms: 0.1620E-02   max: 0.2003E-01   D at    4  2
       a =  5.500      CL =  1.1972
      Cm = -0.0805     CD =  0.02055   =>   CDf =  0.00779    CDp =  0.01276

 Side 1  free  transition at x/c =  0.0412   26
 Side 2 forced transition at x/c =  0.9999   82

   7   rms: 0.4594E-01   max: 0.8693E+00   T at    2  1
       a =  5.500      CL =  1.1972
      Cm = -0.0805     CD =  0.02055   =>   CDf =  0.00808    CDp =  0.01246

 Side 1  free  transition at x/c =  0.0412   26
 Side 2 forced transition at x/c =  0.9999   82

   8   rms: 0.2168E-02   max: 0.3094E-01   D at    4  1
       a =  5.500      CL =  1.1972
      Cm = -0.0805     CD =  0.02055   =>   CDf =  0.00808    CDp =  0.01246

 Side 1  free  transition at x/c =  0.0412   26
 Side 2 forced transition at x/c =  0.9999   82

   9   rms: 0.5054E-04   max: -.5509E-03   D at    5  1
       a =  5.500      CL =  1.1972
      Cm = -0.0805     CD =  0.02055   =>   CDf =  0.00808    CDp =  0.01246
 Calculating wake trajectory ...
 Calculating source influence matrix ...

 Solving BL system ...

 Side 1  free  transition at x/c =  0.0412   26
 Side 2 forced transition at x/c =  0.9999   82

   1   rms: 0.2049E+00   max: 0.1016E+01   T at   26  1   RLX: 0.655
       a =  6.000      CL =  1.2028
      Cm = -0.0758     CD =  0.02454   =>   CDf =  0.00808    CDp =  0.01646

 MRCHDU: Convergence failed at  26  side 1    Res =  0.4280E+01
 MRCHDU: Convergence failed at  27  side 1    Res =  0.5374E+01
 MRCHDU: Convergence failed at  28  side 1    Res =  0.5449E+01
 MRCHDU: Convergence failed at  29  side 1    Res =  0.7186E+01
 MRCHDU: Convergence failed at  30  side 1    Res =  0.1264E+02
 MRCHDU: Convergence failed at  31  side 1    Res =  0.1699E+02
 MRCHDU: Convergence failed at  32  side 1    Res =  0.1935E+02
 MRCHDU: Convergence failed at  33  side 1    Res =  0.1486E+02
 MRCHDU: Convergence failed at  34  side 1    Res =  0.9089E+01
 MRCHDU: Convergence failed at  35  side 1    Res =  0.1693E+02
 MRCHDU: Convergence failed at  36  side 1    Res =  0.2709E+02
 MRCHDU: Convergence failed at  37  side 1    Res =  0.4905E+02
 MRCHDU: Convergence failed at  38  side 1    Res =  0.5896E+02
 MRCHDU: Convergence failed at  39  side 1    Res =  0.1225E+03
 MRCHDU: Convergence failed at  40  side 1    Res =  0.1470E+03
 MRCHDU: Convergence failed at  41  side 1    Res =  0.3342E+03
 MRCHDU: Convergence failed at  42  side 1    Res =  0.1137E+03
 MRCHDU: Convergence failed at  43  side 1    Res =  0.9289E+02
 MRCHDU: Convergence failed at  44  side 1    Res =  0.7200E+02
 MRCHDU: Convergence failed at  45  side 1    Res =  0.5102E+02
 MRCHDU: Convergence failed at  46  side 1    Res =  0.4048E+02
 MRCHDU: Convergence failed at  47  side 1    Res =  0.3389E+02
 MRCHDU: Convergence failed at  48  side 1    Res =  0.2965E+02
 MRCHDU: Convergence failed at  49  side 1    Res =  0.2851E+02
 MRCHDU: Convergence failed at  50  side 1    Res =  0.2837E+02
 MRCHDU: Convergence failed at  51  side 1    Res =  0.2604E+02
 MRCHDU: Convergence failed at  52  side 1    Res =  0.2400E+02
 MRCHDU: Convergence failed at  53  side 1    Res =  0.2233E+02
 MRCHDU: Convergence failed at  54  side 1    Res =  0.2089E+02
 MRCHDU: Convergence failed at  55  side 1    Res =  0.1958E+02
 MRCHDU: Convergence failed at  56  side 1    Res =  0.1836E+02
 MRCHDU: Convergence failed at  57  side 1    Res =  0.1730E+02
 MRCHDU: Convergence failed at  58  side 1    Res =  0.4937E+02
 MRCHDU: Convergence failed at  59  side 1    Res =  0.4122E+02
 MRCHDU: Convergence failed at  60  side 1    Res =  0.2853E+02
 MRCHDU: Convergence failed at  61  side 1    Res =  0.2384E+02
 MRCHDU: Convergence failed at  62  side 1    Res =  0.3182E+02
 MRCHDU: Convergence failed at  63  side 1    Res =  0.1791E+02
 MRCHDU: Convergence failed at  64  side 1    Res =  0.1769E+02
 MRCHDU: Convergence failed at  65  side 1    Res =  0.1867E+02
 MRCHDU: Convergence failed at  66  side 1    Res =  0.1913E+02
 MRCHDU: Convergence failed at  67  side 1    Res =  0.1939E+02
 MRCHDU: Convergence failed at  68  side 1    Res =  0.1943E+02
 MRCHDU: Convergence failed at  69  side 1    Res =  0.1936E+02
 MRCHDU: Convergence failed at  70  side 1    Res =  0.1908E+02
 MRCHDU: Convergence failed at  71  side 1    Res =  0.4586E+02
 MRCHDU: Convergence failed at  72  side 1    Res =  0.4724E+02
 MRCHDU: Convergence failed at  73  side 1    Res =  0.4886E+02
 MRCHDU: Convergence failed at  74  side 1    Res =  0.5044E+02
 MRCHDU: Convergence failed at  75  side 1    Res =  0.5214E+02
 MRCHDU: Convergence failed at  76  side 1    Res =  0.5477E+02
 MRCHDU: Convergence failed at  77  side 1    Res =  0.5804E+02
 MRCHDU: Convergence failed at  78  side 1    Res =  0.2232E+02
 MRCHDU: Convergence failed at  79  side 1    Res =  0.6457E+02
 MRCHDU: Convergence failed at  80  side 1    Res =  0.6834E+02
 MRCHDU: Convergence failed at  81  side 1    Res =  0.7210E+02
 MRCHDU: Convergence failed at  82  side 1    Res =  0.4516E+02
 MRCHDU: Convergence failed at  83  side 1    Res =  0.4653E+02
 MRCHDU: Convergence failed at  84  side 1    Res =  0.4711E+02
 MRCHDU: Convergence failed at  85  side 1    Res =  0.4393E+02
 MRCHDU: Convergence failed at  86  side 1    Res =  0.4145E+02
 MRCHDU: Convergence failed at  87  side 1    Res =  0.5930E+02
 MRCHDU: Convergence failed at  88  side 1    Res =  0.8973E+02
 MRCHDU: Convergence failed at  89  side 1    Res =  0.3053E+03
 MRCHDU: Convergence failed at  90  side 1    Res =  0.4535E+03
 MRCHDU: Convergence failed at  91  side 1    Res =  0.7095E+03
 MRCHDU: Convergence failed at  92  side 1    Res =  0.8899E+02
 MRCHDU: Convergence failed at  93  side 1    Res =  0.6894E+02
 MRCHDU: Convergence failed at  94  side 1    Res =  0.4538E+02
 MRCHDU: Convergence failed at  95  side 1    Res =  0.4112E+02
 MRCHDU: Convergence failed at  96  side 1    Res =  0.3174E+02
 MRCHDU: Convergence failed at  97  side 1    Res =  0.2556E+02
 MRCHDU: Convergence failed at  98  side 1    Res =  0.2719E+02
 MRCHDU: Convergence failed at  99  side 1    Res =  0.4229E+02
 MRCHDU: Convergence failed at 100  side 1    Res =  0.4726E+02
 MRCHDU: Convergence failed at 101  side 1    Res =  0.5768E+02
 MRCHDU: Convergence failed at 102  side 1    Res =  0.8264E+02
 MRCHDU: Convergence failed at 103  side 1    Res =  0.1186E+04
 Side 1  free  transition at x/c =  0.0327   24
 Side 2 forced transition at x/c =  0.9999   82

   2   rms: 0.1295E+01   max: 0.9150E+01   T at   25  1   RLX: 0.056
       a =  6.000      CL =  2.6372
      Cm = -0.5981     CD =  0.00755   =>   CDf =  0.00214    CDp =  0.00541

 MRCHDU: Convergence failed at  25  side 1    Res =  0.1659E+02
 MRCHDU: Convergence failed at  36  side 1    Res =  0.1165E+00
 MRCHDU: Convergence failed at  37  side 1    Res =  0.1088E+00
 MRCHDU: Convergence failed at  38  side 1    Res =  0.1010E+00
 MRCHDU: Convergence failed at  39  side 1    Res =  0.9219E-01
 MRCHDU: Convergence failed at  53  side 1    Res =  0.1441E+00
 MRCHDU: Convergence failed at  54  side 1    Res =  0.1295E+00
 MRCHDU: Convergence failed at  55  side 1    Res =  0.1121E+00
 MRCHDU: Convergence failed at  56  side 1    Res =  0.8845E-01
 Side 1  free  transition at x/c =  0.0398   25
 Side 2 forced transition at x/c =  0.9999   82

   3   rms: 0.5754E+00   max: 0.8110E+00   D at   90  2   RLX: 0.347
       a =  6.000      CL =  1.7957
      Cm = -0.3187     CD =  0.03066   =>   CDf =  0.00428    CDp =  0.02638

 MRCHDU: Convergence failed at  26  side 1    Res =  0.1657E+02
 MRCHDU: Convergence failed at  27  side 1    Res =  0.1570E+02
 MRCHDU: Convergence failed at  28  side 1    Res =  0.2933E+01
 MRCHDU: Convergence failed at  39  side 1    Res =  0.2369E+00
 MRCHDU: Convergence failed at  40  side 1    Res =  0.3532E+00
 MRCHDU: Convergence failed at  43  side 1    Res =  0.7694E+01
 MRCHDU: Convergence failed at  44  side 1    Res =  0.3088E+01
 MRCHDU: Convergence failed at  56  side 1    Res =  0.4034E+00
 MRCHDU: Convergence failed at  57  side 1    Res =  0.6337E+00
 MRCHDU: Convergence failed at  58  side 1    Res =  0.6271E-01
 MRCHDU: Convergence failed at  60  side 1    Res =  0.1488E+01
 MRCHDU: Convergence failed at  61  side 1    Res =  0.1039E+01
 MRCHDU: Convergence failed at  62  side 1    Res =  0.1256E+01
 MRCHDU: Convergence failed at  83  side 1    Res =  0.2204E+00
 MRCHDU: Convergence failed at  84  side 1    Res =  0.7299E+00
 MRCHDU: Convergence failed at  85  side 1    Res =  0.1144E+00
 MRCHDU: Convergence failed at  86  side 1    Res =  0.9217E-01
 MRCHDU: Convergence failed at  87  side 1    Res =  0.8525E-03
 Side 1  free  transition at x/c =  0.0420   26
 Side 2 forced transition at x/c =  0.9999   82

   4   rms: 0.9691E+00   max: -.8041E+01   D at   41  1   RLX: 0.062
       a =  6.000      CL =  1.5914
      Cm = -0.2252     CD =  0.03416   =>   CDf =  0.00461    CDp =  0.02955

 MRCHDU: Convergence failed at  41  side 1    Res =  0.5162E-01
 MRCHDU: Convergence failed at  58  side 1    Res =  0.3845E-02
 MRCHDU: Convergence failed at  86  side 1    Res =  0.6270E-01
 MRCHDU: Convergence failed at  87  side 1    Res =  0.8345E-03
 Side 1  free  transition at x/c =  0.0432   26
 Side 2 forced transition at x/c =  0.9999   82

   5   rms: 0.8550E+00   max: -.6677E+01   D at   41  1   RLX: 0.075
       a =  6.000      CL =  1.5757
      Cm = -0.2186     CD =  0.03513   =>   CDf =  0.00580    CDp =  0.02933

 MRCHDU: Convergence failed at  41  side 1    Res =  0.1861E+00
 MRCHDU: Convergence failed at  42  side 1    Res =  0.1668E+00
 MRCHDU: Convergence failed at  43  side 1    Res =  0.1291E+00
 MRCHDU: Convergence failed at  44  side 1    Res =  0.1070E+00
 MRCHDU: Convergence failed at  58  side 1    Res =  0.5598E+00
 MRCHDU: Convergence failed at  59  side 1    Res =  0.6911E+00
 MRCHDU: Convergence failed at  60  side 1    Res =  0.6891E+00
 MRCHDU: Convergence failed at  61  side 1    Res =  0.6836E+00
 MRCHDU: Convergence failed at  62  side 1    Res =  0.6792E+00
 MRCHDU: Convergence failed at  86  side 1    Res =  0.4081E+00
 MRCHDU: Convergence failed at  87  side 1    Res =  0.7252E+00
 Side 1  free  transition at x/c =  0.0431   26
 Side 2 forced transition at x/c =  0.9999   82

   6   rms: 0.2083E+01   max: -.1149E+02   D at   36  1   RLX: 0.044
       a =  6.000      CL =  1.2948
      Cm = -0.1380     CD =  0.04303   =>   CDf =  0.00388    CDp =  0.03915

 MRCHDU: Convergence failed at  63  side 1    Res =  0.2011E+00
 MRCHDU: Convergence failed at  64  side 1    Res =  0.7385E+00
 Side 1  free  transition at x/c =  0.0495   26
 Side 2 forced transition at x/c =  0.9999   82

   7   rms: 0.7764E+00   max: -.4510E+01   D at   44  1   RLX: 0.111
       a =  6.000      CL =  1.1217
      Cm = -0.0595     CD =  0.05138   =>   CDf =  0.00404    CDp =  0.04734

 Side 1  free  transition at x/c =  0.0524   27
 Side 2 forced transition at x/c =  0.9999   82

   8   rms: 0.4840E+00   max: -.2415E+01   D at   43  1   RLX: 0.207
       a =  6.000      CL =  1.1203
      Cm = -0.0572     CD =  0.05004   =>   CDf =  0.00404    CDp =  0.04600

 Side 1  free  transition at x/c =  0.0599   28
 Side 2 forced transition at x/c =  0.9999   82

   9   rms: 0.5036E+00   max: 0.5998E+01   C at   28  1   RLX: 0.205
       a =  6.000      CL =  1.1192
      Cm = -0.0521     CD =  0.04841   =>   CDf =  0.00416    CDp =  0.04424

 Side 1  free  transition at x/c =  0.0441   26
 Side 2 forced transition at x/c =  0.9999   82

  10   rms: 0.5032E+00   max: 0.2121E+01   T at   26  1   RLX: 0.318
       a =  6.000      CL =  1.1404
      Cm = -0.0445     CD =  0.03616   =>   CDf =  0.00457    CDp =  0.03159

 MRCHDU: Convergence failed at  26  side 1    Res =  0.2188E+01
 Side 1  free  transition at x/c =  0.0358   25
 Side 2 forced transition at x/c =  0.9999   82

  11   rms: 0.7229E+00   max: -.2841E+01   D at   64  1   RLX: 0.176
       a =  6.000      CL =  1.1228
      Cm = -0.0279     CD =  0.03036   =>   CDf =  0.00483    CDp =  0.02553

 Side 1  free  transition at x/c =  0.0337   25
 Side 2 forced transition at x/c =  0.9999   82

  12   rms: 0.9989E+00   max: -.3458E+01   D at   64  1   RLX: 0.145
       a =  6.000      CL =  1.1664
      Cm = -0.0335     CD =  0.02610   =>   CDf =  0.00582    CDp =  0.02028

 Side 1  free  transition at x/c =  0.0321   24
 Side 2 forced transition at x/c =  0.9999   82

  13   rms: 0.6542E+00   max: -.2263E+01   D at   86  1   RLX: 0.221
       a =  6.000      CL =  1.2082
      Cm = -0.0386     CD =  0.02291   =>   CDf =  0.00623    CDp =  0.01667

 Side 1  free  transition at x/c =  0.0289   24
 Side 2 forced transition at x/c =  0.9999   82

  14   rms: 0.3256E+00   max: -.1285E+01   D at   86  1   RLX: 0.389
       a =  6.000      CL =  1.2305
      Cm = -0.0523     CD =  0.02176   =>   CDf =  0.00684    CDp =  0.01492

 Side 1  free  transition at x/c =  0.0286   24
 Side 2 forced transition at x/c =  0.9999   82

  15   rms: 0.1590E+00   max: -.6628E+00   D at   26  1   RLX: 0.754
       a =  6.000      CL =  1.2392
      Cm = -0.0698     CD =  0.02178   =>   CDf =  0.00719    CDp =  0.01460
 VISCAL:  Convergence failed
 Calculating wake trajectory ...
 Calculating source influence matrix ...

 Solving BL system ...

 Side 1  free  transition at x/c =  0.0290   24
 Side 2 forced transition at x/c =  0.9999   82

   1   rms: 0.9746E-01   max: 0.7265E+00   T at   24  1   RLX: 0.956
       a =  6.500      CL =  1.2749
      Cm = -0.0759     CD =  0.02465   =>   CDf =  0.00772    CDp =  0.01693

 MRCHDU: Convergence failed at  24  side 1    Res =  0.3779E+01
 MRCHDU: Convergence failed at  25  side 1    Res =  0.3487E+01
 MRCHDU: Convergence failed at  26  side 1    Res =  0.1185E+02
 MRCHDU: Convergence failed at  27  side 1    Res =  0.6574E+01
 MRCHDU: Convergence failed at  28  side 1    Res =  0.9536E+01
 MRCHDU: Convergence failed at  29  side 1    Res =  0.1269E+02
 MRCHDU: Convergence failed at  30  side 1    Res =  0.1306E+02
 MRCHDU: Convergence failed at  31  side 1    Res =  0.1181E+02
 MRCHDU: Convergence failed at  32  side 1    Res =  0.1111E+02
 MRCHDU: Convergence failed at  33  side 1    Res =  0.1740E+02
 MRCHDU: Convergence failed at  34  side 1    Res =  0.2251E+02
 MRCHDU: Convergence failed at  35  side 1    Res =  0.2629E+02
 MRCHDU: Convergence failed at  36  side 1    Res =  0.2547E+02
 MRCHDU: Convergence failed at  37  side 1    Res =  0.2401E+02
 MRCHDU: Convergence failed at  38  side 1    Res =  0.5911E+02
 MRCHDU: Convergence failed at  39  side 1    Res =  0.5036E+02
 MRCHDU: Convergence failed at  40  side 1    Res =  0.4754E+02
 MRCHDU: Convergence failed at  41  side 1    Res =  0.4341E+02
 MRCHDU: Convergence failed at  42  side 1    Res =  0.4210E+02
 MRCHDU: Convergence failed at  43  side 1    Res =  0.3337E+03
 MRCHDU: Convergence failed at  44  side 1    Res =  0.4015E+02
 MRCHDU: Convergence failed at  45  side 1    Res =  0.3544E+02
 MRCHDU: Convergence failed at  46  side 1    Res =  0.2425E+02
 MRCHDU: Convergence failed at  47  side 1    Res =  0.2254E+02
 MRCHDU: Convergence failed at  48  side 1    Res =  0.2423E+02
 MRCHDU: Convergence failed at  49  side 1    Res =  0.2705E+02
 MRCHDU: Convergence failed at  50  side 1    Res =  0.2877E+02
 MRCHDU: Convergence failed at  51  side 1    Res =  0.3078E+02
 MRCHDU: Convergence failed at  52  side 1    Res =  0.6896E+02
 MRCHDU: Convergence failed at  53  side 1    Res =  0.7349E+02
 MRCHDU: Convergence failed at  54  side 1    Res =  0.7828E+02
 MRCHDU: Convergence failed at  55  side 1    Res =  0.7751E+02
 MRCHDU: Convergence failed at  56  side 1    Res =  0.6033E+02
 MRCHDU: Convergence failed at  57  side 1    Res =  0.6882E+02
 MRCHDU: Convergence failed at  58  side 1    Res =  0.8047E+02
 MRCHDU: Convergence failed at  59  side 1    Res =  0.9411E+02
 MRCHDU: Convergence failed at  60  side 1    Res =  0.7855E+02
 MRCHDU: Convergence failed at  61  side 1    Res =  0.9037E+02
 MRCHDU: Convergence failed at  62  side 1    Res =  0.4579E+02
 MRCHDU: Convergence failed at  63  side 1    Res =  0.3927E+02
 MRCHDU: Convergence failed at  64  side 1    Res =  0.4126E+02
 MRCHDU: Convergence failed at  65  side 1    Res =  0.5023E+02
 MRCHDU: Convergence failed at  66  side 1    Res =  0.5262E+02
 MRCHDU: Convergence failed at  67  side 1    Res =  0.2954E+03
 MRCHDU: Convergence failed at  68  side 1    Res =  0.5724E+03
 MRCHDU: Convergence failed at  69  side 1    Res =  0.4257E+03
 MRCHDU: Convergence failed at  70  side 1    Res =  0.3476E+03
 MRCHDU: Convergence failed at  71  side 1    Res =  0.2960E+03
 MRCHDU: Convergence failed at  72  side 1    Res =  0.5578E+02
 MRCHDU: Convergence failed at  73  side 1    Res =  0.5806E+02
 MRCHDU: Convergence failed at  74  side 1    Res =  0.6934E+02
 MRCHDU: Convergence failed at  75  side 1    Res =  0.6624E+02
 MRCHDU: Convergence failed at  76  side 1    Res =  0.6924E+02
 MRCHDU: Convergence failed at  77  side 1    Res =  0.4104E+03
 MRCHDU: Convergence failed at  78  side 1    Res =  0.3436E+03
 MRCHDU: Convergence failed at  79  side 1    Res =  0.2718E+03
 MRCHDU: Convergence failed at  80  side 1    Res =  0.2190E+03
 MRCHDU: Convergence failed at  81  side 1    Res =  0.1832E+03
 MRCHDU: Convergence failed at  82  side 1    Res =  0.1621E+03
 MRCHDU: Convergence failed at  83  side 1    Res =  0.3892E+03
 MRCHDU: Convergence failed at  84  side 1    Res =  0.3281E+03
 MRCHDU: Convergence failed at  85  side 1    Res =  0.2976E+03
 MRCHDU: Convergence failed at  86  side 1    Res =  0.1134E+03
 MRCHDU: Convergence failed at  87  side 1    Res =  0.8392E+02
 MRCHDU: Convergence failed at  88  side 1    Res =  0.6178E+02
 MRCHDU: Convergence failed at  89  side 1    Res =  0.7517E+02
 MRCHDU: Convergence failed at  90  side 1    Res =  0.3927E+02
 MRCHDU: Convergence failed at  91  side 1    Res =  0.6921E+02
 MRCHDU: Convergence failed at  92  side 1    Res =  0.7193E+02
 MRCHDU: Convergence failed at  93  side 1    Res =  0.8949E+02
 MRCHDU: Convergence failed at  94  side 1    Res =  0.7512E+02
 MRCHDU: Convergence failed at  95  side 1    Res =  0.6952E+02
 MRCHDU: Convergence failed at  96  side 1    Res =  0.6495E+02
 MRCHDU: Convergence failed at  97  side 1    Res =  0.1085E+03
 MRCHDU: Convergence failed at  98  side 1    Res =  0.8453E+02
 MRCHDU: Convergence failed at  99  side 1    Res =  0.7186E+02
 MRCHDU: Convergence failed at 100  side 1    Res =  0.1366E+03
 MRCHDU: Convergence failed at 101  side 1    Res =  0.2182E+03
 MRCHDU: Convergence failed at 102  side 1    Res =  0.1356E+03
 MRCHDU: Convergence failed at 103  side 1    Res =  0.8525E+02
 Side 1  free  transition at x/c =  0.0249   23
 Side 2 forced transition at x/c =  0.9999   82

   2   rms: 0.2600E+01   max: 0.1094E+02   D at   85  2   RLX: 0.049
       a =  6.500      CL =  3.9898
      Cm = -0.9511     CD =  0.00446   =>   CDf =  0.00151    CDp =  0.00295

 MRCHDU: Convergence failed at  64  side 1    Res =  0.2048E+00
 MRCHDU: Convergence failed at  65  side 1    Res =  0.1969E+00
 MRCHDU: Convergence failed at  66  side 1    Res =  0.1908E+00
 MRCHDU: Convergence failed at  67  side 1    Res =  0.1861E+00
 MRCHDU: Convergence failed at  68  side 1    Res =  0.1830E+00
 MRCHDU: Convergence failed at  69  side 1    Res =  0.1810E+00
 MRCHDU: Convergence failed at  70  side 1    Res =  0.1789E+00
 MRCHDU: Convergence failed at  71  side 1    Res =  0.1751E+00
 MRCHDU: Convergence failed at  72  side 1    Res =  0.1780E+00
 MRCHDU: Convergence failed at  73  side 1    Res =  0.1802E+00
 MRCHDU: Convergence failed at  74  side 1    Res =  0.1687E+00
 MRCHDU: Convergence failed at  75  side 1    Res =  0.1803E+00
 MRCHDU: Convergence failed at  76  side 1    Res =  0.1870E+00
 MRCHDU: Convergence failed at  77  side 1    Res =  0.1779E+00
 MRCHDU: Convergence failed at  78  side 1    Res =  0.1855E+00
 MRCHDU: Convergence failed at  79  side 1    Res =  0.1912E+00
 MRCHDU: Convergence failed at  80  side 1    Res =  0.1962E+00
 MRCHDU: Convergence failed at  81  side 1    Res =  0.2019E+00
 MRCHDU: Convergence failed at  82  side 1    Res =  0.2089E+00
 MRCHDU: Convergence failed at  83  side 1    Res =  0.2177E+00
 MRCHDU: Convergence failed at  84  side 1    Res =  0.2276E+00
 MRCHDU: Convergence failed at  85  side 1    Res =  0.2389E+00
 MRCHDU: Convergence failed at  86  side 1    Res =  0.2223E+00
 MRCHDU: Convergence failed at  87  side 1    Res =  0.1589E+00
 MRCHDU: Convergence failed at  88  side 1    Res =  0.2468E+00
 MRCHDU: Convergence failed at  89  side 1    Res =  0.2466E+00
 MRCHDU: Convergence failed at  90  side 1    Res =  0.2475E+00
 MRCHDU: Convergence failed at  91  side 1    Res =  0.2510E+00
 MRCHDU: Convergence failed at  92  side 1    Res =  0.2588E+00
 MRCHDU: Convergence failed at  93  side 1    Res =  0.2698E+00
 MRCHDU: Convergence failed at  94  side 1    Res =  0.2706E+00
 MRCHDU: Convergence failed at  95  side 1    Res =  0.2846E+00
 MRCHDU: Convergence failed at  96  side 1    Res =  0.2997E+00
 MRCHDU: Convergence failed at  97  side 1    Res =  0.3164E+00
 MRCHDU: Convergence failed at  98  side 1    Res =  0.3343E+00
 MRCHDU: Convergence failed at  99  side 1    Res =  0.3543E+00
 MRCHDU: Convergence failed at 100  side 1    Res =  0.3747E+00
 MRCHDU: Convergence failed at 101  side 1    Res =  0.3975E+00
 MRCHDU: Convergence failed at 102  side 1    Res =  0.4167E+00
 MRCHDU: Convergence failed at 103  side 1    Res =  0.4263E+00
 Side 1  free  transition at x/c =  0.0242   23
 Side 2 forced transition at x/c =  0.9999   82

   3   rms: 0.7833E+00   max: 0.1346E+01   D at   92  2   RLX: 0.171
       a =  6.500      CL =  2.5068
      Cm = -0.4945     CD =  0.04315   =>   CDf =  0.00299    CDp =  0.04016

 MRCHDU: Convergence failed at  30  side 1    Res =  0.8039E-01
 Side 1  free  transition at x/c =  0.0274   24
 Side 2 forced transition at x/c =  0.9999   82

   4   rms: 0.6803E+00   max: 0.1083E+01   C at   82  2   RLX: 0.255
       a =  6.500      CL =  1.9785
      Cm = -0.3197     CD =  0.06375   =>   CDf =  0.00316    CDp =  0.06059

 MRCHDU: Convergence failed at  30  side 1    Res =  0.2227E-01
 Side 1  free  transition at x/c =  0.0317   24
 Side 2 forced transition at x/c =  0.9999   82

   5   rms: 0.1292E+02   max: 0.1282E+03   T at   24  1   RLX: 0.005
       a =  6.500      CL =  1.9730
      Cm = -0.3175     CD =  0.08327   =>   CDf =  0.00325    CDp =  0.08002

 Side 1  free  transition at x/c =  0.0285   24
 Side 2 forced transition at x/c =  0.9999   82

   6   rms: 0.6262E+00   max: -.2793E+01   T at   24  1   RLX: 0.179
       a =  6.500      CL =  1.8205
      Cm = -0.2857     CD =  0.07701   =>   CDf =  0.00282    CDp =  0.07419

 Side 1  free  transition at x/c =  0.0324   24
 Side 2 forced transition at x/c =  0.9999   82
 idif Ue xi dudx           1  0.12810275      4.48882580E-03   28.538143    
 Uenew xinew           2  8.37915484E-03  2.93612480E-04

   7   rms: 0.1218E+01   max: -.1188E+02   T at   25  1   RLX: 0.042
       a =  6.500      CL =  1.8062
      Cm = -0.2859     CD =  0.09160   =>   CDf =  0.00321    CDp =  0.08839

 Side 1  free  transition at x/c =  0.0317   23
 Side 2 forced transition at x/c =  0.9999   83

   8   rms: 0.9820E+00   max: 0.1061E+02   T at   24  1   RLX: 0.053
       a =  6.500      CL =  1.7670
      Cm = -0.2839     CD =  0.09419   =>   CDf =  0.00279    CDp =  0.09140

 Side 1  free  transition at x/c =  0.0346   24
 Side 2 forced transition at x/c =  0.9999   83

   9   rms: 0.4945E+00   max: -.2246E+01   T at   24  1   RLX: 0.223
       a =  6.500      CL =  1.4704
      Cm = -0.1963     CD =  0.07963   =>   CDf =  0.00300    CDp =  0.07663

 Side 1  free  transition at x/c =  0.0399   24
 Side 2 forced transition at x/c =  0.9999   83

  10   rms: 0.6358E+00   max: -.1798E+01   D at   38  1   RLX: 0.278
       a =  6.500      CL =  1.2489
      Cm = -0.1057     CD =  0.06016   =>   CDf =  0.00308    CDp =  0.05708

 Side 1  free  transition at x/c =  0.0352   25
 Side 2 forced transition at x/c =  0.9999   82

  11   rms: 0.2417E+01   max: 0.1709E+02   D at    2  1   RLX: 0.055
       a =  6.500      CL =  1.2087
      Cm = -0.0763     CD =  0.06251   =>   CDf =  0.00342    CDp =  0.05909

 MRCHDU: Convergence failed at  30  side 1    Res =  0.8794E-01
 Side 1  free  transition at x/c =  0.0324   24
 Side 2 forced transition at x/c =  0.9999   82

  12   rms: 0.5502E+01   max: 0.2360E+02   T at   24  1   RLX: 0.024
       a =  6.500      CL =  1.2609
      Cm = -0.0621     CD =  0.05304   =>   CDf =  0.00361    CDp =  0.04943

 MRCHDU: Convergence failed at  30  side 1    Res =  0.1097E+00
 MRCHDU: Convergence failed at  31  side 1    Res =  0.4724E+00
 Side 1  free  transition at x/c =  0.0272   24
 Side 2 forced transition at x/c =  0.9999   82

  13   rms: 0.3875E+00   max: -.1097E+01   D at   53  1   RLX: 0.456
       a =  6.500      CL =  1.1723
      Cm = -0.0485     CD =  0.03835   =>   CDf =  0.00493    CDp =  0.03342

 Side 1  free  transition at x/c =  0.0292   24
 Side 2 forced transition at x/c =  0.9999   82

  14   rms: 0.3828E+00   max: -.1564E+01   D at   32  1   RLX: 0.320
       a =  6.500      CL =  1.1595
      Cm = -0.0484     CD =  0.03662   =>   CDf =  0.00619    CDp =  0.03043

 Side 1  free  transition at x/c =  0.0306   24
 Side 2 forced transition at x/c =  0.9999   82

  15   rms: 0.3618E+00   max: -.1920E+01   D at   29  1   RLX: 0.260
       a =  6.500      CL =  1.1664
      Cm = -0.0515     CD =  0.03256   =>   CDf =  0.00649    CDp =  0.02607
 VISCAL:  Convergence failed
 Calculating wake trajectory ...
 Calculating source influence matrix ...

 Solving BL system ...

 Side 1  free  transition at x/c =  0.0312   24
 Side 2 forced transition at x/c =  0.9999   82

   1   rms: 0.3241E+00   max: 0.1427E+01   T at   24  1   RLX: 0.372
       a =  7.000      CL =  1.2157
      Cm = -0.0538     CD =  0.02782   =>   CDf =  0.00674    CDp =  0.02107

 Side 1  free  transition at x/c =  0.0260   24
 Side 2 forced transition at x/c =  0.9999   82

   2   rms: 0.3194E+00   max: 0.1385E+01   T at   24  1   RLX: 0.548
       a =  7.000      CL =  1.2697
      Cm = -0.0574     CD =  0.03061   =>   CDf =  0.00673    CDp =  0.02388

 MRCHDU: Convergence failed at  25  side 1    Res =  0.2081E+02
 MRCHDU: Convergence failed at  26  side 1    Res =  0.1640E+03
 MRCHDU: Convergence failed at  27  side 1    Res =  0.4104E+02
 MRCHDU: Convergence failed at  28  side 1    Res =  0.3599E+02
 MRCHDU: Convergence failed at  29  side 1    Res =  0.3546E+02
 MRCHDU: Convergence failed at  30  side 1    Res =  0.3351E+02
 MRCHDU: Convergence failed at  31  side 1    Res =  0.3384E+02
 MRCHDU: Convergence failed at  32  side 1    Res =  0.1468E+03
 MRCHDU: Convergence failed at  33  side 1    Res =  0.4078E+02
 MRCHDU: Convergence failed at  34  side 1    Res =  0.4655E+02
 MRCHDU: Convergence failed at  35  side 1    Res =  0.4162E+02
 MRCHDU: Convergence failed at  36  side 1    Res =  0.1521E+03
 MRCHDU: Convergence failed at  37  side 1    Res =  0.4584E+03
 MRCHDU: Convergence failed at  38  side 1    Res =  0.1073E+03
 MRCHDU: Convergence failed at  39  side 1    Res =  0.2386E+03
 MRCHDU: Convergence failed at  40  side 1    Res =  0.6446E+02
 MRCHDU: Convergence failed at  41  side 1    Res =  0.5672E+02
 MRCHDU: Convergence failed at  42  side 1    Res =  0.5889E+02
 MRCHDU: Convergence failed at  43  side 1    Res =  0.5037E+02
 MRCHDU: Convergence failed at  44  side 1    Res =  0.4424E+02
 MRCHDU: Convergence failed at  45  side 1    Res =  0.3956E+02
 MRCHDU: Convergence failed at  46  side 1    Res =  0.2665E+03
 MRCHDU: Convergence failed at  47  side 1    Res =  0.1105E+03
 MRCHDU: Convergence failed at  48  side 1    Res =  0.6730E+02
 MRCHDU: Convergence failed at  49  side 1    Res =  0.4287E+02
 MRCHDU: Convergence failed at  50  side 1    Res =  0.4059E+02
 MRCHDU: Convergence failed at  51  side 1    Res =  0.3662E+02
 MRCHDU: Convergence failed at  52  side 1    Res =  0.5797E+02
 MRCHDU: Convergence failed at  53  side 1    Res =  0.3928E+02
 MRCHDU: Convergence failed at  54  side 1    Res =  0.4515E+02
 MRCHDU: Convergence failed at  55  side 1    Res =  0.5222E+02
 MRCHDU: Convergence failed at  56  side 1    Res =  0.6073E+02
 MRCHDU: Convergence failed at  57  side 1    Res =  0.8802E+02
 MRCHDU: Convergence failed at  58  side 1    Res =  0.7510E+02
 MRCHDU: Convergence failed at  59  side 1    Res =  0.9393E+02
 MRCHDU: Convergence failed at  60  side 1    Res =  0.1037E+03
 MRCHDU: Convergence failed at  61  side 1    Res =  0.1247E+03
 MRCHDU: Convergence failed at  62  side 1    Res =  0.1451E+03
 MRCHDU: Convergence failed at  63  side 1    Res =  0.1700E+03
 MRCHDU: Convergence failed at  64  side 1    Res =  0.8282E+02
 MRCHDU: Convergence failed at  65  side 1    Res =  0.8860E+02
 MRCHDU: Convergence failed at  66  side 1    Res =  0.9437E+02
 MRCHDU: Convergence failed at  67  side 1    Res =  0.9941E+02
 MRCHDU: Convergence failed at  68  side 1    Res =  0.1036E+03
 MRCHDU: Convergence failed at  69  side 1    Res =  0.1062E+03
 MRCHDU: Convergence failed at  70  side 1    Res =  0.1076E+03
 MRCHDU: Convergence failed at  71  side 1    Res =  0.1074E+03
 MRCHDU: Convergence failed at  72  side 1    Res =  0.1056E+03
 MRCHDU: Convergence failed at  73  side 1    Res =  0.9836E+02
 MRCHDU: Convergence failed at  74  side 1    Res =  0.9136E+02
 MRCHDU: Convergence failed at  75  side 1    Res =  0.6800E+02
 MRCHDU: Convergence failed at  76  side 1    Res =  0.4781E+02
 MRCHDU: Convergence failed at  77  side 1    Res =  0.4783E+02
 MRCHDU: Convergence failed at  78  side 1    Res =  0.1641E+04
 MRCHDU: Convergence failed at  79  side 1    Res =  0.7378E+02
 MRCHDU: Convergence failed at  80  side 1    Res =  0.7245E+02
 MRCHDU: Convergence failed at  81  side 1    Res =  0.3051E+03
 MRCHDU: Convergence failed at  82  side 1    Res =  0.2795E+03
 MRCHDU: Convergence failed at  83  side 1    Res =  0.2206E+03
 MRCHDU: Convergence failed at  84  side 1    Res =  0.1207E+03
 MRCHDU: Convergence failed at  85  side 1    Res =  0.1162E+03
 MRCHDU: Convergence failed at  86  side 1    Res =  0.1116E+03
 MRCHDU: Convergence failed at  87  side 1    Res =  0.1041E+03
 MRCHDU: Convergence failed at  88  side 1    Res =  0.9482E+02
 MRCHDU: Convergence failed at  89  side 1    Res =  0.8954E+02
 MRCHDU: Convergence failed at  90  side 1    Res =  0.4510E+03
 MRCHDU: Convergence failed at  91  side 1    Res =  0.2053E+03
 MRCHDU: Convergence failed at  92  side 1    Res =  0.2163E+03
 MRCHDU: Convergence failed at  93  side 1    Res =  0.2320E+03
 MRCHDU: Convergence failed at  94  side 1    Res =  0.2500E+03
 MRCHDU: Convergence failed at  95  side 1    Res =  0.2167E+03
 MRCHDU: Convergence failed at  96  side 1    Res =  0.2330E+03
 MRCHDU: Convergence failed at  97  side 1    Res =  0.2443E+03
 MRCHDU: Convergence failed at  98  side 1    Res =  0.2567E+03
 MRCHDU: Convergence failed at  99  side 1    Res =  0.2665E+03
 MRCHDU: Convergence failed at 100  side 1    Res =  0.2668E+03
 MRCHDU: Convergence failed at 101  side 1    Res =  0.2504E+03
 MRCHDU: Convergence failed at 102  side 1    Res =  0.2193E+03
 MRCHDU: Convergence failed at 103  side 1    Res =  0.1785E+03
 MRCHDU: Convergence failed at 104  side 1    Res =  0.1299E+03
 Side 1  free  transition at x/c =  0.0226   24
 Side 2 forced transition at x/c =  0.9999   81

   3   rms: 0.2257E+01   max: 0.1261E+02   D at   84  2   RLX: 0.042
       a =  7.000      CL =  4.0862
      Cm = -0.9758     CD =  0.00576   =>   CDf =  0.00168    CDp =  0.00408

 Side 1  free  transition at x/c =  0.0220   24
 Side 2 forced transition at x/c =  0.9999   81

   4   rms: 0.8695E+00   max: 0.1652E+01   D at   91  2   RLX: 0.189
       a =  7.000      CL =  2.8878
      Cm = -0.6701     CD =  0.05411   =>   CDf =  0.00252    CDp =  0.05159

 Side 1  free  transition at x/c =  0.0217   24
 Side 2 forced transition at x/c =  0.9999   81
 idif Ue xi dudx           1  0.15962592      6.53612614E-03   24.422098    
 Uenew xinew           2  3.18180472E-02  1.30283833E-03

   5   rms: 0.8667E+00   max: 0.2169E+01   C at   81  2   RLX: 0.248
       a =  7.000      CL =  2.3476
      Cm = -0.4850     CD =  0.06469   =>   CDf =  0.00288    CDp =  0.06180

 Side 1  free  transition at x/c =  0.0240   23
 Side 2 forced transition at x/c =  0.9999   82

   6   rms: 0.1196E+01   max: -.6415E+01   T at   23  1   RLX: 0.078
       a =  7.000      CL =  2.1639
      Cm = -0.4459     CD =  0.08897   =>   CDf =  0.00270    CDp =  0.08627

 MRCHDU: Convergence failed at  55  side 1    Res =  0.1467E+00
 MRCHDU: Convergence failed at  56  side 1    Res =  0.8671E+00
 MRCHDU: Convergence failed at  57  side 1    Res =  0.3360E+00
 MRCHDU: Convergence failed at  58  side 1    Res =  0.2984E+00
 MRCHDU: Convergence failed at  59  side 1    Res =  0.2531E+00
 MRCHDU: Convergence failed at  60  side 1    Res =  0.1950E+00
 MRCHDU: Convergence failed at  61  side 1    Res =  0.1161E+00
 Side 1  free  transition at x/c =  0.0299   24
 Side 2 forced transition at x/c =  0.9999   82

   7   rms: 0.1310E+01   max: -.1116E+02   T at   24  1   RLX: 0.045
       a =  7.000      CL =  1.8184
      Cm = -0.3661     CD =  0.08546   =>   CDf =  0.00289    CDp =  0.08257

 MRCHDU: Convergence failed at  62  side 1    Res =  0.2435E+00
 MRCHDU: Convergence failed at  63  side 1    Res =  0.9956E+00
 MRCHDU: Convergence failed at  64  side 1    Res =  0.3619E+00
 MRCHDU: Convergence failed at  65  side 1    Res =  0.3143E+00
 MRCHDU: Convergence failed at  66  side 1    Res =  0.2321E+00
 MRCHDU: Convergence failed at  67  side 1    Res =  0.7028E-01
 MRCHDU: Convergence failed at  68  side 1    Res =  0.1511E-02
 Side 1  free  transition at x/c =  0.0359   25
 Side 2 forced transition at x/c =  0.9999   82

   8   rms: 0.7072E+00   max: -.4448E+01   T at   25  1   RLX: 0.112
       a =  7.000      CL =  1.5522
      Cm = -0.2813     CD =  0.07813   =>   CDf =  0.00301    CDp =  0.07513

 MRCHDU: Convergence failed at  67  side 1    Res =  0.4331E+00
 MRCHDU: Convergence failed at  68  side 1    Res =  0.1015E+01
 MRCHDU: Convergence failed at  69  side 1    Res =  0.4025E+00
 MRCHDU: Convergence failed at  70  side 1    Res =  0.3634E+00
 MRCHDU: Convergence failed at  71  side 1    Res =  0.3093E+00
 MRCHDU: Convergence failed at  72  side 1    Res =  0.2339E+00
 MRCHDU: Convergence failed at  73  side 1    Res =  0.9198E-01
 MRCHDU: Convergence failed at  74  side 1    Res =  0.1906E-02
 Side 1  free  transition at x/c =  0.0456   26
 Side 2 forced transition at x/c =  0.9999   82

   9   rms: 0.2431E+01   max: 0.2723E+02   T at   26  1   RLX: 0.036
       a =  7.000      CL =  1.4440
      Cm = -0.2320     CD =  0.08005   =>   CDf =  0.00298    CDp =  0.07707

 MRCHDU: Convergence failed at  26  side 1    Res =  0.7379E+01
 Side 1  free  transition at x/c =  0.0346   25
 Side 2 forced transition at x/c =  0.9999   82

  10   rms: 0.1391E+01   max: -.1244E+02   T at   25  1   RLX: 0.040
       a =  7.000      CL =  1.5091
      Cm = -0.2371     CD =  0.08618   =>   CDf =  0.00280    CDp =  0.08339

 Side 1  free  transition at x/c =  0.0401   25
 Side 2 forced transition at x/c =  0.9999   82

  11   rms: 0.4644E+00   max: -.1934E+01   T at   26  1   RLX: 0.258
       a =  7.000      CL =  1.4230
      Cm = -0.1950     CD =  0.08015   =>   CDf =  0.00282    CDp =  0.07733

 Side 1  free  transition at x/c =  0.0376   25
 Side 2 forced transition at x/c =  0.9999   82

  12   rms: 0.1028E+01   max: -.7399E+01   T at   25  1   RLX: 0.068
       a =  7.000      CL =  1.4166
      Cm = -0.1880     CD =  0.09387   =>   CDf =  0.00276    CDp =  0.09111

 Side 1  free  transition at x/c =  0.0464   26
 Side 2 forced transition at x/c =  0.9999   82

  13   rms: 0.8839E+00   max: 0.1150E+02   T at   26  1   RLX: 0.060
       a =  7.000      CL =  1.3210
      Cm = -0.1626     CD =  0.09460   =>   CDf =  0.00288    CDp =  0.09172

 Side 1  free  transition at x/c =  0.0396   25
 Side 2 forced transition at x/c =  0.9999   82

  14   rms: 0.4361E+00   max: 0.3572E+01   T at   25  1   RLX: 0.265
       a =  7.000      CL =  1.2791
      Cm = -0.1378     CD =  0.08711   =>   CDf =  0.00282    CDp =  0.08429

 Side 1  free  transition at x/c =  0.0327   24
 Side 2 forced transition at x/c =  0.9999   82

  15   rms: 0.2082E+01   max: -.7734E+01   D at   25  1   RLX: 0.065
       a =  7.000      CL =  1.2347
      Cm = -0.1301     CD =  0.08381   =>   CDf =  0.00276    CDp =  0.08105
 VISCAL:  Convergence failed
 Calculating wake trajectory ...
 Calculating source influence matrix ...

 Solving BL system ...

 MRCHDU: Convergence failed at  25  side 1    Res =  0.6343E+01
 Side 1  free  transition at x/c =  0.0408   25
 Side 2 forced transition at x/c =  0.9999   82

   1   rms: 0.5453E+00   max: -.1743E+01   D at   45  1   RLX: 0.287
       a =  7.500      CL =  1.1451
      Cm = -0.0861     CD =  0.06742   =>   CDf =  0.00281    CDp =  0.06461

 Side 1  free  transition at x/c =  0.0385   25
 Side 2 forced transition at x/c =  0.9999   82

   2   rms: 0.9519E+00   max: -.3611E+01   D at   38  1   RLX: 0.138
       a =  7.500      CL =  1.1147
      Cm = -0.0824     CD =  0.05945   =>   CDf =  0.00380    CDp =  0.05565

 Side 1  free  transition at x/c =  0.0412   26
 Side 2 forced transition at x/c =  0.9999   82

   3   rms: 0.8739E+00   max: -.3368E+01   D at   33  1   RLX: 0.148
       a =  7.500      CL =  1.1105
      Cm = -0.0773     CD =  0.05793   =>   CDf =  0.00441    CDp =  0.05352

 Side 1  free  transition at x/c =  0.0465   26
 Side 2 forced transition at x/c =  0.9999   82

   4   rms: 0.1072E+01   max: -.5762E+01   T at   26  1   RLX: 0.087
       a =  7.500      CL =  1.1115
      Cm = -0.0756     CD =  0.05848   =>   CDf =  0.00522    CDp =  0.05325

 MRCHDU: Convergence failed at  27  side 1    Res =  0.1879E+01
 MRCHDU: Convergence failed at  28  side 1    Res =  0.3484E+01
 MRCHDU: Convergence failed at  29  side 1    Res =  0.5816E+01
 MRCHDU: Convergence failed at  30  side 1    Res =  0.1069E+02
 MRCHDU: Convergence failed at  31  side 1    Res =  0.3182E+02
 MRCHDU: Convergence failed at  32  side 1    Res =  0.1460E+02
 MRCHDU: Convergence failed at  33  side 1    Res =  0.9456E+01
 MRCHDU: Convergence failed at  34  side 1    Res =  0.1583E+02
 MRCHDU: Convergence failed at  35  side 1    Res =  0.7820E+02
 MRCHDU: Convergence failed at  36  side 1    Res =  0.1352E+02
 MRCHDU: Convergence failed at  37  side 1    Res =  0.8606E+01
 MRCHDU: Convergence failed at  38  side 1    Res =  0.9187E+01
 MRCHDU: Convergence failed at  39  side 1    Res =  0.1087E+02
 MRCHDU: Convergence failed at  40  side 1    Res =  0.1275E+02
 MRCHDU: Convergence failed at  41  side 1    Res =  0.1513E+02
 MRCHDU: Convergence failed at  42  side 1    Res =  0.4802E+01
 MRCHDU: Convergence failed at  43  side 1    Res =  0.1684E+02
 MRCHDU: Convergence failed at  44  side 1    Res =  0.2179E+02
 MRCHDU: Convergence failed at  45  side 1    Res =  0.2953E+02
 MRCHDU: Convergence failed at  46  side 1    Res =  0.4133E+02
 MRCHDU: Convergence failed at  47  side 1    Res =  0.2593E+02
 MRCHDU: Convergence failed at  48  side 1    Res =  0.3099E+02
 MRCHDU: Convergence failed at  49  side 1    Res =  0.5488E+03
 MRCHDU: Convergence failed at  50  side 1    Res =  0.3567E+03
 MRCHDU: Convergence failed at  51  side 1    Res =  0.1562E+03
 MRCHDU: Convergence failed at  52  side 1    Res =  0.1210E+03
 MRCHDU: Convergence failed at  53  side 1    Res =  0.7527E+02
 MRCHDU: Convergence failed at  54  side 1    Res =  0.4123E+02
 MRCHDU: Convergence failed at  55  side 1    Res =  0.3325E+02
 MRCHDU: Convergence failed at  56  side 1    Res =  0.2867E+02
 MRCHDU: Convergence failed at  57  side 1    Res =  0.2573E+02
 MRCHDU: Convergence failed at  58  side 1    Res =  0.2548E+02
 MRCHDU: Convergence failed at  59  side 1    Res =  0.2489E+02
 MRCHDU: Convergence failed at  60  side 1    Res =  0.2243E+02
 MRCHDU: Convergence failed at  61  side 1    Res =  0.2097E+02
 MRCHDU: Convergence failed at  62  side 1    Res =  0.1965E+02
 MRCHDU: Convergence failed at  63  side 1    Res =  0.1844E+02
 MRCHDU: Convergence failed at  64  side 1    Res =  0.1515E+02
 MRCHDU: Convergence failed at  65  side 1    Res =  0.1449E+02
 MRCHDU: Convergence failed at  66  side 1    Res =  0.1388E+02
 MRCHDU: Convergence failed at  67  side 1    Res =  0.1154E+02
 MRCHDU: Convergence failed at  68  side 1    Res =  0.1116E+02
 MRCHDU: Convergence failed at  69  side 1    Res =  0.9726E+01
 MRCHDU: Convergence failed at  70  side 1    Res =  0.1024E+02
 MRCHDU: Convergence failed at  71  side 1    Res =  0.1092E+02
 MRCHDU: Convergence failed at  72  side 1    Res =  0.2173E+02
 MRCHDU: Convergence failed at  73  side 1    Res =  0.2825E+02
 MRCHDU: Convergence failed at  74  side 1    Res =  0.2678E+02
 MRCHDU: Convergence failed at  75  side 1    Res =  0.1333E+02
 MRCHDU: Convergence failed at  76  side 1    Res =  0.7205E+01
 MRCHDU: Convergence failed at  77  side 1    Res =  0.8235E+01
 MRCHDU: Convergence failed at  78  side 1    Res =  0.1138E+02
 MRCHDU: Convergence failed at  79  side 1    Res =  0.1381E+02
 MRCHDU: Convergence failed at  80  side 1    Res =  0.2689E+02
 MRCHDU: Convergence failed at  81  side 1    Res =  0.2978E+02
 MRCHDU: Convergence failed at  82  side 1    Res =  0.2177E+03
 MRCHDU: Convergence failed at  83  side 1    Res =  0.5491E+02
 MRCHDU: Convergence failed at  84  side 1    Res =  0.3635E+02
 MRCHDU: Convergence failed at  85  side 1    Res =  0.1965E+02
 MRCHDU: Convergence failed at  86  side 1    Res =  0.1505E+02
 MRCHDU: Convergence failed at  87  side 1    Res =  0.1102E+02
 MRCHDU: Convergence failed at  88  side 1    Res =  0.1182E+02
 MRCHDU: Convergence failed at  89  side 1    Res =  0.7060E+01
 MRCHDU: Convergence failed at  90  side 1    Res =  0.7654E+01
 MRCHDU: Convergence failed at  91  side 1    Res =  0.9643E+01
 MRCHDU: Convergence failed at  92  side 1    Res =  0.1095E+02
 MRCHDU: Convergence failed at  93  side 1    Res =  0.1403E+02
 MRCHDU: Convergence failed at  94  side 1    Res =  0.1952E+02
 MRCHDU: Convergence failed at  95  side 1    Res =  0.2698E+02
 MRCHDU: Convergence failed at  96  side 1    Res =  0.4394E+02
 MRCHDU: Convergence failed at  97  side 1    Res =  0.2231E+03
 MRCHDU: Convergence failed at  98  side 1    Res =  0.8245E+02
 MRCHDU: Convergence failed at  99  side 1    Res =  0.5429E+02
 MRCHDU: Convergence failed at 100  side 1    Res =  0.3273E+02
 MRCHDU: Convergence failed at 101  side 1    Res =  0.2122E+02
 MRCHDU: Convergence failed at 102  side 1    Res =  0.1737E+02
 MRCHDU: Convergence failed at 103  side 1    Res =  0.1368E+02
 MRCHDU: Convergence failed at  97  side 2    Res =  0.1016E-01
 MRCHDU: Convergence failed at  98  side 2    Res =  0.1028E+01
 Side 1  free  transition at x/c =  0.2254   42
 Side 2 forced transition at x/c =  0.9999   82

   5   rms: 0.5870E+01   max: 0.9736E+02   C at   42  1   RLX: 0.011
       a =  7.500      CL =  3.4703
      Cm = -0.8095     CD =  0.01132   =>   CDf =  0.00704    CDp =  0.00428

 Side 1  free  transition at x/c =  0.3479   51
 Side 2 forced transition at x/c =  0.9999   82

   6   rms: 0.2685E+02   max: 0.5579E+03   C at   51  1   RLX: 0.003
       a =  7.500      CL =  3.4446
      Cm = -0.8014     CD =  0.01362   =>   CDf =  0.01611    CDp = -0.00249

 Side 1  free  transition at x/c =  0.2730   45
 Side 2 forced transition at x/c =  0.9999   82

   7   rms: 0.2005E+02   max: 0.4309E+03   C at   45  1   RLX: 0.003
       a =  7.500      CL =  3.4344
      Cm = -0.7983     CD =  0.01387   =>   CDf =  0.01700    CDp = -0.00313

 Side 1  free  transition at x/c =  0.2591   44
 Side 2 forced transition at x/c =  0.9999   82

   8   rms: 0.6796E+01   max: 0.1386E+03   C at   44  1   RLX: 0.011
       a =  7.500      CL =  3.4094
      Cm = -0.7890     CD =  0.01391   =>   CDf =  0.01721    CDp = -0.00330

 Side 1  free  transition at x/c =  0.0489   26
 Side 2 forced transition at x/c =  0.9999   82

   9   rms: 0.3827E+01   max: 0.9120E+02   C at   26  1   RLX: 0.016
       a =  7.500      CL =  3.3682
      Cm = -0.7751     CD =  0.01456   =>   CDf =  0.01944    CDp = -0.00488

 Side 1  free  transition at x/c =  0.0405   25
 Side 2 forced transition at x/c =  0.9999   82

  10   rms: 0.1133E+01   max: 0.6029E+01   T at   25  1   RLX: 0.249
       a =  7.500      CL =  2.8487
      Cm = -0.5745     CD =  0.01278   =>   CDf =  0.01909    CDp = -0.00631

 MRCHDU: Convergence failed at  26  side 1    Res =  0.1757E+02
 MRCHDU: Convergence failed at  27  side 1    Res =  0.8571E+01
 MRCHDU: Convergence failed at  28  side 1    Res =  0.9237E+01
 MRCHDU: Convergence failed at  29  side 1    Res =  0.1001E+02
 MRCHDU: Convergence failed at  30  side 1    Res =  0.7002E+01
 MRCHDU: Convergence failed at  31  side 1    Res =  0.7183E+01
 MRCHDU: Convergence failed at  32  side 1    Res =  0.7818E+01
 MRCHDU: Convergence failed at  33  side 1    Res =  0.8113E+01
 MRCHDU: Convergence failed at  34  side 1    Res =  0.8408E+01
 MRCHDU: Convergence failed at  35  side 1    Res =  0.8470E+01
 MRCHDU: Convergence failed at  36  side 1    Res =  0.8460E+01
 MRCHDU: Convergence failed at  37  side 1    Res =  0.8526E+01
 MRCHDU: Convergence failed at  38  side 1    Res =  0.8421E+01
 MRCHDU: Convergence failed at  39  side 1    Res =  0.8515E+01
 MRCHDU: Convergence failed at  40  side 1    Res =  0.8764E+01
 MRCHDU: Convergence failed at  41  side 1    Res =  0.8610E+01
 MRCHDU: Convergence failed at  42  side 1    Res =  0.7898E+01
 MRCHDU: Convergence failed at  43  side 1    Res =  0.1106E+02
 MRCHDU: Convergence failed at  44  side 1    Res =  0.1258E+02
 MRCHDU: Convergence failed at  45  side 1    Res =  0.3265E+02
 MRCHDU: Convergence failed at  46  side 1    Res =  0.1592E+02
 MRCHDU: Convergence failed at  47  side 1    Res =  0.9736E+01
 MRCHDU: Convergence failed at  48  side 1    Res =  0.1193E+02
 MRCHDU: Convergence failed at  49  side 1    Res =  0.1212E+02
 MRCHDU: Convergence failed at  50  side 1    Res =  0.1171E+02
 MRCHDU: Convergence failed at  51  side 1    Res =  0.1133E+02
 MRCHDU: Convergence failed at  52  side 1    Res =  0.1212E+02
 MRCHDU: Convergence failed at  53  side 1    Res =  0.1435E+02
 MRCHDU: Convergence failed at  54  side 1    Res =  0.1505E+02
 MRCHDU: Convergence failed at  55  side 1    Res =  0.1422E+02
 MRCHDU: Convergence failed at  56  side 1    Res =  0.1329E+02
 MRCHDU: Convergence failed at  57  side 1    Res =  0.1301E+02
 MRCHDU: Convergence failed at  58  side 1    Res =  0.1303E+02
 MRCHDU: Convergence failed at  59  side 1    Res =  0.1319E+02
 MRCHDU: Convergence failed at  60  side 1    Res =  0.1328E+02
 MRCHDU: Convergence failed at  61  side 1    Res =  0.1387E+02
 MRCHDU: Convergence failed at  62  side 1    Res =  0.1430E+02
 MRCHDU: Convergence failed at  63  side 1    Res =  0.1466E+02
 MRCHDU: Convergence failed at  64  side 1    Res =  0.1500E+02
 MRCHDU: Convergence failed at  65  side 1    Res =  0.1534E+02
 MRCHDU: Convergence failed at  66  side 1    Res =  0.1561E+02
 MRCHDU: Convergence failed at  67  side 1    Res =  0.1584E+02
 MRCHDU: Convergence failed at  68  side 1    Res =  0.1603E+02
 MRCHDU: Convergence failed at  69  side 1    Res =  0.1618E+02
 MRCHDU: Convergence failed at  70  side 1    Res =  0.1629E+02
 MRCHDU: Convergence failed at  71  side 1    Res =  0.1634E+02
 MRCHDU: Convergence failed at  72  side 1    Res =  0.1649E+02
 MRCHDU: Convergence failed at  73  side 1    Res =  0.1631E+02
 MRCHDU: Convergence failed at  74  side 1    Res =  0.1627E+02
 MRCHDU: Convergence failed at  75  side 1    Res =  0.1621E+02
 MRCHDU: Convergence failed at  76  side 1    Res =  0.1621E+02
 MRCHDU: Convergence failed at  77  side 1    Res =  0.1664E+02
 MRCHDU: Convergence failed at  78  side 1    Res =  0.1713E+02
 MRCHDU: Convergence failed at  79  side 1    Res =  0.1749E+02
 MRCHDU: Convergence failed at  80  side 1    Res =  0.1774E+02
 MRCHDU: Convergence failed at  81  side 1    Res =  0.1793E+02
 MRCHDU: Convergence failed at  82  side 1    Res =  0.1804E+02
 MRCHDU: Convergence failed at  83  side 1    Res =  0.1805E+02
 MRCHDU: Convergence failed at  84  side 1    Res =  0.1797E+02
 MRCHDU: Convergence failed at  85  side 1    Res =  0.1769E+02
 MRCHDU: Convergence failed at  86  side 1    Res =  0.1723E+02
 MRCHDU: Convergence failed at  87  side 1    Res =  0.1586E+02
 MRCHDU: Convergence failed at  88  side 1    Res =  0.1728E+02
 MRCHDU: Convergence failed at  89  side 1    Res =  0.1900E+02
 MRCHDU: Convergence failed at  90  side 1    Res =  0.2015E+02
 MRCHDU: Convergence failed at  91  side 1    Res =  0.2109E+02
 MRCHDU: Convergence failed at  92  side 1    Res =  0.2204E+02
 MRCHDU: Convergence failed at  93  side 1    Res =  0.2261E+02
 MRCHDU: Convergence failed at  94  side 1    Res =  0.2323E+02
 MRCHDU: Convergence failed at  95  side 1    Res =  0.2438E+02
 MRCHDU: Convergence failed at  96  side 1    Res =  0.2552E+02
 MRCHDU: Convergence failed at  97  side 1    Res =  0.2662E+02
 MRCHDU: Convergence failed at  98  side 1    Res =  0.2771E+02
 MRCHDU: Convergence failed at  99  side 1    Res =  0.2884E+02
 MRCHDU: Convergence failed at 100  side 1    Res =  0.3000E+02
 MRCHDU: Convergence failed at 101  side 1    Res =  0.3114E+02
 MRCHDU: Convergence failed at 102  side 1    Res =  0.3210E+02
 MRCHDU: Convergence failed at 103  side 1    Res =  0.3277E+02
 MRCHDU: Convergence failed at 104  side 1    Res =  0.3145E+02
 Side 1  free  transition at x/c =  0.0248   24
 Side 2 forced transition at x/c =  0.9999   81
 idif Ue xi dudx           1  0.15974611      6.43122196E-03   24.839153    
 Uenew xinew           2  2.97556706E-02  1.19793415E-03

  11   rms: 0.1383E+01   max: 0.5663E+01   D at   90  2   RLX: 0.263
       a =  7.500      CL =  3.0569
      Cm = -0.6824     CD =  0.02249   =>   CDf =  0.00248    CDp =  0.02001

 MRCHDU: Convergence failed at  34  side 1    Res =  0.2508E-03
 MRCHDU: Convergence failed at  91  side 2    Res =  0.5123E+02
 MRCHDU: Convergence failed at  92  side 2    Res =  0.5062E+01
 MRCHDU: Convergence failed at  93  side 2    Res =  0.3142E+01
 MRCHDU: Convergence failed at  94  side 2    Res =  0.4101E+01
 MRCHDU: Convergence failed at  95  side 2    Res =  0.4158E+02
 MRCHDU: Convergence failed at  96  side 2    Res =  0.4410E+01
 MRCHDU: Convergence failed at  97  side 2    Res =  0.3400E+01
 MRCHDU: Convergence failed at  98  side 2    Res =  0.2659E+01
 MRCHDU: Convergence failed at  99  side 2    Res =  0.2264E+01
 MRCHDU: Convergence failed at 100  side 2    Res =  0.2163E+01
 MRCHDU: Convergence failed at 101  side 2    Res =  0.1861E+01
 Side 1  free  transition at x/c =  0.0288   24
 Side 2 forced transition at x/c =  0.9999   82

  12   rms: 0.7236E+00   max: -.2301E+01   T at   24  1   RLX: 0.217
       a =  7.500      CL =  1.9610
      Cm = -0.3449     CD =  0.08664   =>   CDf =  0.00324    CDp =  0.08340

 MRCHDU: Convergence failed at  34  side 1    Res =  0.2363E-01
 Side 1  free  transition at x/c =  0.0326   24
 Side 2 forced transition at x/c =  0.9999   82

  13   rms: 0.7665E+00   max: -.3642E+01   T at   25  1   RLX: 0.137
       a =  7.500      CL =  1.8160
      Cm = -0.3018     CD =  0.10590   =>   CDf =  0.00331    CDp =  0.10259

 Side 1  free  transition at x/c =  0.0310   24
 Side 2 forced transition at x/c =  0.9999   82
 idif Ue xi dudx           1  0.11712555      4.31489944E-03   27.144445    
 Uenew xinew           2  3.24881356E-03  1.19686127E-04

  14   rms: 0.6426E+00   max: -.4154E+01   T at   24  1   RLX: 0.120
       a =  7.500      CL =  1.7154
      Cm = -0.2814     CD =  0.11556   =>   CDf =  0.00327    CDp =  0.11229

 Side 1  free  transition at x/c =  0.0359   24
 Side 2 forced transition at x/c =  0.9999   83

  15   rms: 0.5297E+00   max: -.3305E+01   D at    2  2   RLX: 0.151
       a =  7.500      CL =  1.5163
      Cm = -0.2201     CD =  0.11179   =>   CDf =  0.00325    CDp =  0.10854
 VISCAL:  Convergence failed

 Sequence halted since previous  4 points did not converge
 Last-converged  alpha =   5.500    CL =   1.19721

.OPERv   c>   Calculating wake trajectory ...
 Calculating source influence matrix ...

 Solving BL system ...

 Side 1  free  transition at x/c =  0.0389   24
 Side 2 forced transition at x/c =  0.9999   83

   1   rms: 0.7553E+01   max: 0.8932E+02   T at   24  1   RLX: 0.010
       a = 10.000      CL =  1.5166
      Cm = -0.2131     CD =  0.12484   =>   CDf =  0.00338    CDp =  0.12146

 Side 1  free  transition at x/c =  0.0333   24
 Side 2 forced transition at x/c =  0.9999   83

   2   rms: 0.4557E+00   max: 0.1241E+01   C at   83  2   RLX: 0.408
       a = 10.000      CL =  1.3294
      Cm = -0.1632     CD =  0.10050   =>   CDf =  0.00273    CDp =  0.09777

 Side 1  free  transition at x/c =  0.0321   24
 Side 2 forced transition at x/c =  0.9999   82

   3   rms: 0.6012E+00   max: 0.5103E+01   T at   24  1   RLX: 0.141
       a = 10.000      CL =  1.2350
      Cm = -0.1118     CD =  0.11566   =>   CDf =  0.00313    CDp =  0.11253

 Side 1  free  transition at x/c =  0.0265   24
 Side 2 forced transition at x/c =  0.9999   82

   4   rms: 0.1256E+01   max: -.7096E+01   D at   35  1   RLX: 0.070
       a = 10.000      CL =  1.2479
      Cm = -0.1126     CD =  0.11613   =>   CDf =  0.00307    CDp =  0.11306

 Side 1  free  transition at x/c =  0.0259   24
 Side 2 forced transition at x/c =  0.9999   82

   5   rms: 0.5734E+01   max: -.1964E+02   D at   42  1   RLX: 0.024
       a = 10.000      CL =  1.2707
      Cm = -0.0912     CD =  0.10354   =>   CDf =  0.00291    CDp =  0.10062

 MRCHDU: Convergence failed at  25  side 1    Res =  0.4893E+02
 MRCHDU: Convergence failed at  26  side 1    Res =  0.1138E+02
 MRCHDU: Convergence failed at  27  side 1    Res =  0.1818E+03
 MRCHDU: Convergence failed at  28  side 1    Res =  0.2134E+02
 MRCHDU: Convergence failed at  29  side 1    Res =  0.2225E+02
 MRCHDU: Convergence failed at  30  side 1    Res =  0.2291E+02
 MRCHDU: Convergence failed at  31  side 1    Res =  0.3987E+02
 MRCHDU: Convergence failed at  32  side 1    Res =  0.4959E+02
 MRCHDU: Convergence failed at  33  side 1    Res =  0.4275E+02
 MRCHDU: Convergence failed at  34  side 1    Res =  0.5084E+02
 MRCHDU: Convergence failed at  35  side 1    Res =  0.1764E+02
 MRCHDU: Convergence failed at  36  side 1    Res =  0.3688E+01
 MRCHDU: Convergence failed at  37  side 1    Res =  0.6658E+02
 MRCHDU: Convergence failed at  38  side 1    Res =  0.8421E+02
 MRCHDU: Convergence failed at  39  side 1    Res =  0.7808E+02
 MRCHDU: Convergence failed at  40  side 1    Res =  0.9122E+02
 MRCHDU: Convergence failed at  41  side 1    Res =  0.1515E+03
 MRCHDU: Convergence failed at  42  side 1    Res =  0.8643E+02
 MRCHDU: Convergence failed at  43  side 1    Res =  0.7724E+02
 MRCHDU: Convergence failed at  44  side 1    Res =  0.1617E+03
 MRCHDU: Convergence failed at  45  side 1    Res =  0.7848E+02
 MRCHDU: Convergence failed at  46  side 1    Res =  0.4392E+02
 MRCHDU: Convergence failed at  47  side 1    Res =  0.2599E+02
 MRCHDU: Convergence failed at  48  side 1    Res =  0.4364E+02
 MRCHDU: Convergence failed at  49  side 1    Res =  0.1087E+03
 MRCHDU: Convergence failed at  50  side 1    Res =  0.1754E+03
 MRCHDU: Convergence failed at  51  side 1    Res =  0.5075E+02
 MRCHDU: Convergence failed at  52  side 1    Res =  0.2670E+02
 MRCHDU: Convergence failed at  53  side 1    Res =  0.3937E+02
 MRCHDU: Convergence failed at  54  side 1    Res =  0.8239E+02
 MRCHDU: Convergence failed at  55  side 1    Res =  0.9835E+02
 MRCHDU: Convergence failed at  56  side 1    Res =  0.2402E+03
 MRCHDU: Convergence failed at  57  side 1    Res =  0.4599E+02
 MRCHDU: Convergence failed at  58  side 1    Res =  0.4650E+02
 MRCHDU: Convergence failed at  59  side 1    Res =  0.2669E+02
 MRCHDU: Convergence failed at  60  side 1    Res =  0.2861E+02
 MRCHDU: Convergence failed at  61  side 1    Res =  0.4025E+02
 MRCHDU: Convergence failed at  62  side 1    Res =  0.4381E+02
 MRCHDU: Convergence failed at  63  side 1    Res =  0.1536E+03
 MRCHDU: Convergence failed at  64  side 1    Res =  0.1167E+03
 MRCHDU: Convergence failed at  65  side 1    Res =  0.1467E+03
 MRCHDU: Convergence failed at  66  side 1    Res =  0.1143E+03
 MRCHDU: Convergence failed at  67  side 1    Res =  0.4274E+02
 MRCHDU: Convergence failed at  68  side 1    Res =  0.4630E+02
 MRCHDU: Convergence failed at  69  side 1    Res =  0.4262E+02
 MRCHDU: Convergence failed at  70  side 1    Res =  0.3985E+02
 MRCHDU: Convergence failed at  71  side 1    Res =  0.2796E+02
 MRCHDU: Convergence failed at  72  side 1    Res =  0.3033E+02
 MRCHDU: Convergence failed at  73  side 1    Res =  0.2894E+02
 MRCHDU: Convergence failed at  74  side 1    Res =  0.4504E+02
 MRCHDU: Convergence failed at  75  side 1    Res =  0.5215E+02
 MRCHDU: Convergence failed at  76  side 1    Res =  0.5276E+02
 MRCHDU: Convergence failed at  77  side 1    Res =  0.5389E+02
 MRCHDU: Convergence failed at  78  side 1    Res =  0.5170E+02
 MRCHDU: Convergence failed at  79  side 1    Res =  0.1418E+03
 MRCHDU: Convergence failed at  80  side 1    Res =  0.1654E+03
 MRCHDU: Convergence failed at  81  side 1    Res =  0.2022E+03
 MRCHDU: Convergence failed at  82  side 1    Res =  0.1879E+03
 MRCHDU: Convergence failed at  83  side 1    Res =  0.4642E+03
 MRCHDU: Convergence failed at  84  side 1    Res =  0.1005E+03
 MRCHDU: Convergence failed at  85  side 1    Res =  0.1117E+03
 MRCHDU: Convergence failed at  86  side 1    Res =  0.1005E+03
 MRCHDU: Convergence failed at  87  side 1    Res =  0.7461E+02
 MRCHDU: Convergence failed at  88  side 1    Res =  0.4842E+02
 MRCHDU: Convergence failed at  89  side 1    Res =  0.3910E+02
 MRCHDU: Convergence failed at  90  side 1    Res =  0.3758E+02
 MRCHDU: Convergence failed at  91  side 1    Res =  0.3631E+02
 MRCHDU: Convergence failed at  92  side 1    Res =  0.3254E+02
 MRCHDU: Convergence failed at  93  side 1    Res =  0.3175E+02
 MRCHDU: Convergence failed at  94  side 1    Res =  0.3252E+02
 MRCHDU: Convergence failed at  95  side 1    Res =  0.3441E+02
 MRCHDU: Convergence failed at  96  side 1    Res =  0.3440E+02
 MRCHDU: Convergence failed at  97  side 1    Res =  0.3667E+02
 MRCHDU: Convergence failed at  98  side 1    Res =  0.5618E+02
 MRCHDU: Convergence failed at  99  side 1    Res =  0.5372E+02
 MRCHDU: Convergence failed at 100  side 1    Res =  0.5566E+02
 MRCHDU: Convergence failed at 101  side 1    Res =  0.5933E+02
 MRCHDU: Convergence failed at 102  side 1    Res =  0.2921E+03
 MRCHDU: Convergence failed at 103  side 1    Res =  0.9030E+03
 MRCHDU: Convergence failed at 104  side 1    Res =  0.2101E+03
 Side 1  free  transition at x/c =  0.0231   24
 Side 2 forced transition at x/c =  0.9999   81

   6   rms: 0.2182E+01   max: 0.6892E+01   D at  101  1   RLX: 0.214
       a = 10.000      CL =  3.6640
      Cm = -0.8358     CD =  0.03561   =>   CDf =  0.00194    CDp =  0.03366

 MRCHDU: Convergence failed at  99  side 1    Res =  0.2880E+00
 MRCHDU: Convergence failed at 100  side 1    Res =  0.2788E+00
 MRCHDU: Convergence failed at 101  side 1    Res =  0.2729E+00
 MRCHDU: Convergence failed at 102  side 1    Res =  0.2682E+00
 MRCHDU: Convergence failed at 103  side 1    Res =  0.2619E+00
 MRCHDU: Convergence failed at 104  side 1    Res =  0.2419E+00
 MRCHDU: Convergence failed at  94  side 2    Res =  0.3411E+01
 MRCHDU: Convergence failed at  95  side 2    Res =  0.2222E+04
 MRCHDU: Convergence failed at  96  side 2    Res =  0.4576E+01
 MRCHDU: Convergence failed at  98  side 2    Res =  0.4242E+01
 MRCHDU: Convergence failed at  99  side 2    Res =  0.1514E+01
 Side 1  free  transition at x/c =  0.0213   24
 Side 2 forced transition at x/c =  0.9999   81
 idif Ue xi dudx           1  0.16360939      6.52921200E-03   25.058060    
 Uenew xinew           2  3.24733444E-02  1.29592419E-03

   7   rms: 0.1191E+01   max: -.3882E+01   T at   24  1   RLX: 0.129
       a = 10.000      CL =  2.1409
      Cm = -0.3970     CD =  0.14118   =>   CDf =  0.00292    CDp =  0.13826

 Side 1  free  transition at x/c =  0.0239   23
 Side 2 forced transition at x/c =  0.9999   82

   8   rms: 0.6586E+00   max: 0.2971E+01   C at   82  2   RLX: 0.269
       a = 10.000      CL =  1.7209
      Cm = -0.2986     CD =  0.12595   =>   CDf =  0.00276    CDp =  0.12319

 Side 1  free  transition at x/c =  0.0256   23
 Side 2 forced transition at x/c =  0.9999   82

   9   rms: 0.4814E+00   max: 0.3870E+01   C at   82  2   RLX: 0.388
       a = 10.000      CL =  1.3189
      Cm = -0.1870     CD =  0.11513   =>   CDf =  0.00290    CDp =  0.11223

 Side 1  free  transition at x/c =  0.0281   24
 Side 2 forced transition at x/c =  0.9999   82
 idif Ue xi dudx           1  0.19045217      6.68394566E-03   28.493975    
 Uenew xinew           2  7.09138736E-02  2.48873234E-03

  10   rms: 0.6874E+01   max: 0.2608E+02   D at   24  1   RLX: 0.034
       a = 10.000      CL =  1.0698
      Cm = -0.1361     CD =  0.21667   =>   CDf =  0.00320    CDp =  0.21347
 VISCAL:  Convergence failed
 Type "!" to continue iterating

.OPERv   c>  
 Flap hinge x,y :  0.0000  0.0000
                                           2  2
[...]
 MRCHDU: Convergence failed at  90  side 2    Res =  0.1148E+02
 MRCHDU: Convergence failed at  91  side 2    Res =  0.2676E+01
 Side 1  free  transition at x/c =  0.0497   30
 Side 2 forced transition at x/c =  0.9999   78

   6   rms: 0.3351E+01   max: 0.1256E+02   D at   92  2   RLX: 0.119
       a = 13.000      CL =  8.6162
      Cm = -2.1657     CD =  0.00885   =>   CDf = -0.00079    CDp =  0.00963

 MRCHDU: Convergence failed at  92  side 2    Res =  0.1306E+02
 MRCHDU: Convergence failed at  93  side 2    Res =  0.2130E+02
 MRCHDU: Convergence failed at  94  side 2    Res =  0.1220E+02
 MRCHDU: Convergence failed at  95  side 2    Res =  0.9740E+01
 MRCHDU: Convergence failed at  96  side 2    Res =  0.1052E+02
 MRCHDU: Convergence failed at  97  side 2    Res =  0.1098E+02
 MRCHDU: Convergence failed at  98  side 2    Res =  0.1139E+02
 MRCHDU: Convergence failed at  99  side 2    Res =  0.1125E+02
 MRCHDU: Convergence failed at 100  side 2    Res =  0.1119E+02
 MRCHDU: Convergence failed at 101  side 2    Res =  0.1120E+02
 MRCHDU: Convergence failed at 102  side 2    Res =  0.1143E+02
 Side 1  free  transition at x/c =  0.0564   31
 Side 2 forced transition at x/c =  0.9999   78

   7   rms: 0.3375E+01   max: 0.1557E+02   C at   78  2   RLX: 0.058
       a = 13.000      CL =  7.0061
      Cm = -1.6846     CD =  0.34452   =>   CDf =  0.00119    CDp =  0.34333

 Side 1  free  transition at x/c =  0.0314   28
 Side 2 forced transition at x/c =  0.9999   78

   8   rms: 0.3921E+02   max: 0.6028E+03   T at   29  1   RLX: 0.001
       a = 13.000      CL =  6.9266
      Cm = -1.6691     CD =  0.83437   =>   CDf =  0.00147    CDp =  0.83290

 Side 1  free  transition at x/c =  0.0275   28
 Side 2 forced transition at x/c =  0.9999   78

   9   rms: 0.4434E+01   max: 0.6378E+02   T at   28  1   RLX: 0.024
       a = 13.000      CL =  6.9011
      Cm = -1.6648     CD =  0.99146   =>   CDf =  0.00146    CDp =  0.99000

 Side 1  free  transition at x/c =  0.0200   26
 Side 2 forced transition at x/c =  0.9999   78
 idif Ue xi dudx           1  0.12418713      1.05633736E-02   11.756390    
 Uenew xinew           2  1.07450774E-02  9.13977623E-04

  10   rms: 0.3793E+01   max: 0.1897E+02   C at   78  2   RLX: 0.046
       a = 13.000      CL =  6.4572
      Cm = -1.5683     CD =  4.23405   =>   CDf =  0.00206    CDp =  4.23199

 Side 1  free  transition at x/c =  0.0201   26
 Side 2 forced transition at x/c =  0.9999   79

  11   rms: 0.3460E+01   max: 0.2202E+02   C at   79  2   RLX: 0.046
       a = 13.000      CL =  6.0597
      Cm = -1.4734     CD = 99.52937   =>   CDf =  0.00168    CDp = 99.52769

 Side 1  free  transition at x/c =  0.0203   26
 Side 2 forced transition at x/c =  0.9999   79

  12   rms: 0.2893E+01   max: 0.2443E+02   C at   79  2   RLX: 0.056
       a = 13.000      CL =  5.6098
      Cm = -1.3622     CD =*********   =>   CDf =  0.00179    CDp =*********

 MRCHDU: Convergence failed at  98  side 1    Res =  0.3340E-01
 MRCHDU: Convergence failed at  99  side 1    Res =  0.2475E-01
 MRCHDU: Convergence failed at 100  side 1    Res =  0.2209E-01
 MRCHDU: Convergence failed at 101  side 1    Res =  0.1949E-01
 MRCHDU: Convergence failed at 102  side 1    Res =  0.1760E-01
 MRCHDU: Convergence failed at 103  side 1    Res =  0.1731E-01
 MRCHDU: Convergence failed at 104  side 1    Res =  0.1713E-01
 MRCHDU: Convergence failed at 105  side 1    Res =  0.1505E-01
 MRCHDU: Convergence failed at 106  side 1    Res =  0.8863E-02
 Side 1  free  transition at x/c =  0.0206   26
 Side 2 forced transition at x/c =  0.9999   79

  13   rms: 0.1968E+02   max: -.3398E+03   T at   26  1   RLX: 0.001
       a = 13.000      CL =  5.5915
      Cm = -1.3567     CD =*********   =>   CDf =  0.00189    CDp =*********

 MRCHDU: Convergence failed at  97  side 1    Res =  0.1012E-02
 MRCHDU: Convergence failed at  98  side 1    Res =  0.3626E-01
 MRCHDU: Convergence failed at  99  side 1    Res =  0.2431E-01
 MRCHDU: Convergence failed at 100  side 1    Res =  0.2176E-01
 MRCHDU: Convergence failed at 101  side 1    Res =  0.1927E-01
 MRCHDU: Convergence failed at 102  side 1    Res =  0.1753E-01
 MRCHDU: Convergence failed at 103  side 1    Res =  0.1752E-01
 MRCHDU: Convergence failed at 104  side 1    Res =  0.1787E-01
 MRCHDU: Convergence failed at 105  side 1    Res =  0.1661E-01
 MRCHDU: Convergence failed at 106  side 1    Res =  0.1048E-01
 Side 1  free  transition at x/c =  0.0207   26
 Side 2 forced transition at x/c =  0.9999   79

  14   rms: 0.3085E+02   max: 0.2826E+03   T at  100  2   RLX: 0.005
       a = 13.000      CL =  5.6247
      Cm = -1.3665     CD =125.24079   =>   CDf =  0.00191    CDp =125.23888

 MRCHDU: Convergence failed at  97  side 1    Res =  0.1761E-01
 MRCHDU: Convergence failed at  98  side 1    Res =  0.3524E-01
 MRCHDU: Convergence failed at  99  side 1    Res =  0.2439E-01
 MRCHDU: Convergence failed at 100  side 1    Res =  0.2262E-01
 MRCHDU: Convergence failed at 101  side 1    Res =  0.2016E-01
 MRCHDU: Convergence failed at 102  side 1    Res =  0.1905E-01
 MRCHDU: Convergence failed at 103  side 1    Res =  0.2116E-01
 MRCHDU: Convergence failed at 104  side 1    Res =  0.2843E-01
 MRCHDU: Convergence failed at 105  side 1    Res =  0.1366E+00
 Side 1  free  transition at x/c =  0.0208   26
 Side 2 forced transition at x/c =  0.9999   79

  15   rms: 0.2646E+02   max: 0.1874E+03   T at  102  2   RLX: 0.008
       a = 13.000      CL =  5.6317
      Cm = -1.3677     CD =  5.05481   =>   CDf =  0.00192    CDp =  5.05289
 VISCAL:  Convergence failed
 Calculating wake trajectory ...
 Calculating source influence matrix ...

 Solving BL system ...

 MRCHDU: Convergence failed at  96  side 1    Res =  0.4942E-02
 MRCHDU: Convergence failed at  97  side 1    Res =  0.5319E-01
 MRCHDU: Convergence failed at  98  side 1    Res =  0.3182E-01
 MRCHDU: Convergence failed at  99  side 1    Res =  0.2284E-01
 MRCHDU: Convergence failed at 100  side 1    Res =  0.2152E-01
 MRCHDU: Convergence failed at 101  side 1    Res =  0.1893E-01
 MRCHDU: Convergence failed at 102  side 1    Res =  0.2484E-01
 MRCHDU: Convergence failed at 103  side 1    Res =  0.4133E-01
 MRCHDU: Convergence failed at 104  side 1    Res =  0.4580E-01
 MRCHDU: Convergence failed at 105  side 1    Res =  0.5403E-01
 Side 1  free  transition at x/c =  0.0210   26
 Side 2 forced transition at x/c =  0.9999   79

   1   rms: 0.3056E+02   max: 0.2183E+03   T at  103  2   RLX: 0.007
       a = 13.500      CL =  5.6812
      Cm = -1.3819     CD =  1.92081   =>   CDf =  0.00195    CDp =  1.91886

 MRCHDU: Convergence failed at  96  side 1    Res =  0.2038E-01
 MRCHDU: Convergence failed at  97  side 1    Res =  0.5369E-01
 MRCHDU: Convergence failed at  98  side 1    Res =  0.3121E-01
 MRCHDU: Convergence failed at  99  side 1    Res =  0.2178E-01
 MRCHDU: Convergence failed at 100  side 1    Res =  0.2001E-01
 MRCHDU: Convergence failed at 101  side 1    Res =  0.1838E-01
 MRCHDU: Convergence failed at 102  side 1    Res =  0.2540E-01
 MRCHDU: Convergence failed at 103  side 1    Res =  0.4466E-01
 MRCHDU: Convergence failed at 104  side 1    Res =  0.5468E-01
 Side 1  free  transition at x/c =  0.0211   26
 Side 2 forced transition at x/c =  0.9999   79

   2   rms: 0.3486E+02   max: 0.2228E+03   C at  105  1   RLX: 0.007
       a = 13.500      CL =  5.7455
      Cm = -1.3967     CD =  0.97966   =>   CDf =  0.00196    CDp =  0.97770

 MRCHDU: Convergence failed at  96  side 1    Res =  0.3755E-01
 MRCHDU: Convergence failed at  97  side 1    Res =  0.5466E-01
 MRCHDU: Convergence failed at  98  side 1    Res =  0.3430E-01
 MRCHDU: Convergence failed at  99  side 1    Res =  0.2277E-01
 MRCHDU: Convergence failed at 100  side 1    Res =  0.2105E-01
 MRCHDU: Convergence failed at 101  side 1    Res =  0.2031E-01
 MRCHDU: Convergence failed at 102  side 1    Res =  0.2755E-01
 MRCHDU: Convergence failed at 103  side 1    Res =  0.4891E-01
 MRCHDU: Convergence failed at 104  side 1    Res =  0.8131E-01
 Side 1  free  transition at x/c =  0.0213   26
 Side 2 forced transition at x/c =  0.9999   79

   3   rms: 0.1091E+02   max: 0.6788E+02   T at  103  2   RLX: 0.022
       a = 13.500      CL =  5.8194
      Cm = -1.4119     CD =  0.99380   =>   CDf =  0.00198    CDp =  0.99182

 MRCHDU: Convergence failed at  26  side 1    Res =  0.1391E+00
 TRCHEK2: N2 convergence failed.
 x:  0.99184  1.00411  1.00509  N:  8.800  9.000  9.004  Nx:  24.466   dN:-0.379E+00
 TRCHEK2: N2 convergence failed.
 x:  0.99184  1.00314  1.00509  N:  8.800  9.000  9.021  Nx:  36.433   dN:-0.364E+00
 Side 1  free  transition at x/c =  0.9362  101
 Side 2 forced transition at x/c =  0.9999   79

   4   rms: 0.9022E+01   max: 0.4834E+02   C at  103  1   RLX: 0.013
       a = 13.500      CL =  5.9363
      Cm = -1.4387     CD =  0.17184   =>   CDf =  0.00060    CDp =  0.17124

 Side 1  free  transition at x/c =  0.0588   30
 Side 2 forced transition at x/c =  0.9999   79

   5   rms: 0.1493E+02   max: -.1888E+03   T at   31  1   RLX: 0.003
       a = 13.500      CL =  5.2202
      Cm = -1.2195     CD =  0.37503   =>   CDf =  0.00187    CDp =  0.37315

 Side 1  free  transition at x/c =  0.0582   30
 Side 2 forced transition at x/c =  0.9999   79

   6   rms: 0.4533E+01   max: -.6687E+02   T at   31  1   RLX: 0.007
       a = 13.500      CL =  5.2133
      Cm = -1.2219     CD =  0.38830   =>   CDf =  0.00190    CDp =  0.38641

 Side 1  free  transition at x/c =  0.0578   30
 Side 2 forced transition at x/c =  0.9999   79

   7   rms: 0.9045E+01   max: 0.1274E+03   T at   30  1   RLX: 0.004
       a = 13.500      CL =  5.2353
      Cm = -1.2264     CD =  0.40092   =>   CDf =  0.00191    CDp =  0.39901

 Side 1  free  transition at x/c =  0.0559   30
 Side 2 forced transition at x/c =  0.9999   79

   8   rms: 0.5266E+02   max: -.5584E+03   T at   30  1   RLX: 0.001
       a = 13.500      CL =  5.2283
      Cm = -1.2345     CD =  0.40452   =>   CDf =  0.00190    CDp =  0.40262

 Side 1  free  transition at x/c =  0.0613   31
 Side 2 forced transition at x/c =  0.9999   79

   9   rms: 0.3800E+01   max: -.2652E+02   C at   31  1   RLX: 0.019
       a = 13.500      CL =  5.1879
      Cm = -1.2261     CD =  0.43553   =>   CDf =  0.00194    CDp =  0.43360

 MRCHDU: Convergence failed at  31  side 1    Res =  0.1187E+01
 Side 1  free  transition at x/c =  0.4406   61
 Side 2 forced transition at x/c =  0.9999   79

  10   rms: 0.6474E+01   max: 0.1198E+03   T at   61  1   RLX: 0.011
       a = 13.500      CL =  5.1155
      Cm = -1.1483     CD =  0.28461   =>   CDf =  0.00128    CDp =  0.28333

 MRCHDU: Convergence failed at 106  side 1    Res =  0.2845E-01
 Side 1  free  transition at x/c =  0.3389   53
 Side 2 forced transition at x/c =  0.9999   79

  11   rms: 0.9863E+01   max: 0.1657E+03   T at   53  1   RLX: 0.005
       a = 13.500      CL =  5.0254
      Cm = -1.1379     CD =  0.43093   =>   CDf =  0.00143    CDp =  0.42950

 MRCHDU: Convergence failed at 106  side 1    Res =  0.9356E-01
 Side 1  free  transition at x/c =  0.2625   47
 Side 2 forced transition at x/c =  0.9999   79

  12   rms: 0.1879E+02   max: 0.1080E+03   T at  103  2   RLX: 0.007
       a = 13.500      CL =  5.1005
      Cm = -1.1461     CD =  0.70963   =>   CDf =  0.00156    CDp =  0.70807

 MRCHDU: Convergence failed at 106  side 1    Res =  0.1865E-01
 Side 1  free  transition at x/c =  0.0685   31
 Side 2 forced transition at x/c =  0.9999   79

  13   rms: 0.1056E+02   max: -.1457E+03   T at   32  1   RLX: 0.003
       a = 13.500      CL =  5.0469
      Cm = -1.1746     CD =  0.52240   =>   CDf =  0.00195    CDp =  0.52045

 MRCHDU: Convergence failed at 106  side 1    Res =  0.1593E-01
 Side 1  free  transition at x/c =  0.0599   31
 Side 2 forced transition at x/c =  0.9999   79

  14   rms: 0.2238E+02   max: 0.2147E+03   T at   32  1   RLX: 0.007
       a = 13.500      CL =  5.0155
      Cm = -1.1576     CD =  0.65722   =>   CDf =  0.00201    CDp =  0.65521

 MRCHDU: Convergence failed at 106  side 1    Res =  0.2523E+00
 MRCHDU: Convergence failed at  99  side 2    Res =  0.1207E+03
 MRCHDU: Convergence failed at 100  side 2    Res =  0.1575E+01
 MRCHDU: Convergence failed at 101  side 2    Res =  0.1874E+01
 MRCHDU: Convergence failed at 102  side 2    Res =  0.2116E+01
 MRCHDU: Convergence failed at 103  side 2    Res =  0.2649E+01
 Side 1  free  transition at x/c =  0.0578   30
 Side 2 forced transition at x/c =  0.9999   79

  15   rms: 0.2858E+01   max: 0.3419E+02   T at   30  1   RLX: 0.022
       a = 13.500      CL =  5.2163
      Cm = -1.1987     CD =  0.41937   =>   CDf =  0.00193    CDp =  0.41744
 VISCAL:  Convergence failed
 Calculating wake trajectory ...
 Calculating source influence matrix ...

 Solving BL system ...

 MRCHDU: Convergence failed at 103  side 1    Res =  0.8649E-02
 MRCHDU: Convergence failed at 105  side 1    Res =  0.2047E+00
 MRCHDU: Convergence failed at 106  side 1    Res =  0.5833E-03
 Side 1  free  transition at x/c =  0.0487   29
 Side 2 forced transition at x/c =  0.9999   79

   1   rms: 0.2803E+01   max: 0.2047E+02   C at   79  2   RLX: 0.027
       a = 14.000      CL =  5.2862
      Cm = -1.2277     CD =  0.49199   =>   CDf =  0.00202    CDp =  0.48997

 MRCHDU: Convergence failed at 103  side 1    Res =  0.2992E+00
 MRCHDU: Convergence failed at  98  side 2    Res =  0.1457E+03
 MRCHDU: Convergence failed at  99  side 2    Res =  0.2443E+01
 MRCHDU: Convergence failed at 100  side 2    Res =  0.1155E+02
 MRCHDU: Convergence failed at 101  side 2    Res =  0.2501E+01
 MRCHDU: Convergence failed at 102  side 2    Res =  0.1555E+01
 MRCHDU: Convergence failed at 103  side 2    Res =  0.1427E+01
 Side 1  free  transition at x/c =  0.0429   29
 Side 2 forced transition at x/c =  0.9999   79

   2   rms: 0.1651E+02   max: -.8594E+02   C at  106  1   RLX: 0.006
       a = 14.000      CL =  5.1907
      Cm = -1.2131     CD =  0.24565   =>   CDf =  0.00218    CDp =  0.24347

 Side 1  free  transition at x/c =  0.0431   29
 Side 2 forced transition at x/c =  0.9999   79

   3   rms: 0.6222E+01   max: 0.5523E+02   C at  104  1   RLX: 0.027
       a = 14.000      CL =  5.0406
      Cm = -1.1780     CD =  0.27073   =>   CDf =  0.00220    CDp =  0.26853

 Side 1  free  transition at x/c =  0.0429   29
 Side 2 forced transition at x/c =  0.9999   79

   4   rms: 0.6549E+02   max: 0.3916E+03   C at  106  1   RLX: 0.004
       a = 14.000      CL =  5.0125
      Cm = -1.1700     CD =  0.26546   =>   CDf =  0.00223    CDp =  0.26323

 Side 1  free  transition at x/c =  0.0429   29
 Side 2 forced transition at x/c =  0.9999   79

   5   rms: 0.4198E+02   max: 0.2620E+03   C at  106  1   RLX: 0.006
       a = 14.000      CL =  5.0010
      Cm = -1.1663     CD =  0.28703   =>   CDf =  0.00223    CDp =  0.28480

 Side 1  free  transition at x/c =  0.0421   29
 Side 2 forced transition at x/c =  0.9999   79

   6   rms: 0.1801E+02   max: 0.1059E+03   C at  106  1   RLX: 0.014
       a = 14.000      CL =  5.0255
      Cm = -1.1666     CD =  0.31932   =>   CDf =  0.00223    CDp =  0.31709

 MRCHDU: Convergence failed at 105  side 1    Res =  0.5192E-02
 MRCHDU: Convergence failed at 106  side 1    Res =  0.5528E-01
 Side 1  free  transition at x/c =  0.0400   28
 Side 2 forced transition at x/c =  0.9999   79

   7   rms: 0.2223E+01   max: 0.3393E+02   C at   79  2   RLX: 0.039
       a = 14.000      CL =  5.0075
      Cm = -1.1653     CD =  0.73450   =>   CDf =  0.00219    CDp =  0.73231

 MRCHDU: Convergence failed at 105  side 1    Res =  0.9093E-02
 MRCHDU: Convergence failed at 106  side 1    Res =  0.5043E-01
 Side 1  free  transition at x/c =  0.0369   28
 Side 2 forced transition at x/c =  0.9999   79

   8   rms: 0.3577E+02   max: 0.2544E+03   T at  103  2   RLX: 0.006
       a = 14.000      CL =  5.1763
      Cm = -1.2057     CD =  0.50299   =>   CDf =  0.00227    CDp =  0.50072

 MRCHDU: Convergence failed at 105  side 1    Res =  0.8060E-02
 MRCHDU: Convergence failed at  94  side 2    Res =  0.1505E+01
 MRCHDU: Convergence failed at  95  side 2    Res =  0.7297E+01
 MRCHDU: Convergence failed at  96  side 2    Res =  0.2095E+01
 MRCHDU: Convergence failed at  97  side 2    Res =  0.3772E+01
 MRCHDU: Convergence failed at  98  side 2    Res =  0.2491E+01
 MRCHDU: Convergence failed at  99  side 2    Res =  0.6385E+01
 MRCHDU: Convergence failed at 100  side 2    Res =  0.1294E+02
 MRCHDU: Convergence failed at 101  side 2    Res =  0.2318E+02
 MRCHDU: Convergence failed at 102  side 2    Res =  0.5199E+02
 MRCHDU: Convergence failed at 103  side 2    Res =  0.2424E+02
 Side 1  free  transition at x/c =  0.0313   27
 Side 2 forced transition at x/c =  0.9999   79

   9   rms: 0.1696E+02   max: 0.8431E+02   C at  106  1   RLX: 0.008
       a = 14.000      CL =  5.5339
      Cm = -1.2938     CD =  0.40404   =>   CDf =  0.00166    CDp =  0.40238

 MRCHDU: Convergence failed at 106  side 1    Res =  0.8993E-02
 Side 1  free  transition at x/c =  0.0256   27
 Side 2 forced transition at x/c =  0.9999   78

  10   rms: 0.1059E+02   max: -.1321E+03   T at   30  1   RLX: 0.004
       a = 14.000      CL =  5.5780
      Cm = -1.3147     CD =  0.43706   =>   CDf =  0.00229    CDp =  0.43477

 MRCHDU: Convergence failed at 106  side 1    Res =  0.9294E-02
 Side 1  free  transition at x/c =  0.0253   27
 Side 2 forced transition at x/c =  0.9999   78

  11   rms: 0.1066E+02   max: -.1734E+03   T at   28  1   RLX: 0.003
       a = 14.000      CL =  5.6439
      Cm = -1.3338     CD =  0.46065   =>   CDf =  0.00232    CDp =  0.45833

 MRCHDU: Convergence failed at 106  side 1    Res =  0.9186E-02
 Side 1  free  transition at x/c =  0.0247   27
 Side 2 forced transition at x/c =  0.9999   78

  12   rms: 0.1773E+02   max: -.2160E+03   T at   28  1   RLX: 0.002
       a = 14.000      CL =  5.7140
      Cm = -1.3513     CD =  0.50749   =>   CDf =  0.00234    CDp =  0.50515

 MRCHDU: Convergence failed at 106  side 1    Res =  0.9316E-02
 Side 1  free  transition at x/c =  0.0234   27
 Side 2 forced transition at x/c =  0.9999   78

  13   rms: 0.2169E+02   max: 0.1376E+03   T at   27  1   RLX: 0.006
       a = 14.000      CL =  5.9097
      Cm = -1.3941     CD =  0.64860   =>   CDf =  0.00236    CDp =  0.64624

 MRCHDU: Convergence failed at 106  side 1    Res =  0.8251E-02
 Side 1  free  transition at x/c =  0.0208   27
 Side 2 forced transition at x/c =  0.9999   78

  14   rms: 0.1640E+02   max: 0.1284E+03   T at   28  1   RLX: 0.012
       a = 14.000      CL =  6.1170
      Cm = -1.4349     CD =  0.84720   =>   CDf =  0.00239    CDp =  0.84481

 MRCHDU: Convergence failed at 106  side 1    Res =  0.7085E-02
 MRCHDU: Convergence failed at  95  side 2    Res =  0.3921E+01
 MRCHDU: Convergence failed at  96  side 2    Res =  0.1992E+01
 MRCHDU: Convergence failed at  97  side 2    Res =  0.1681E+01
 MRCHDU: Convergence failed at  98  side 2    Res =  0.1667E+01
 MRCHDU: Convergence failed at  99  side 2    Res =  0.2126E+01
 MRCHDU: Convergence failed at 100  side 2    Res =  0.2785E+01
 Side 1  free  transition at x/c =  0.0197   26
 Side 2 forced transition at x/c =  0.9999   78

  15   rms: 0.8311E+01   max: 0.4748E+02   C at   78  2   RLX: 0.014
       a = 14.000      CL =  6.7759
      Cm = -1.6049     CD =  1.01257   =>   CDf =  0.00238    CDp =  1.01019
 VISCAL:  Convergence failed

 Sequence halted since previous  4 points did not converge
 Last-converged  alpha =  12.000    CL =   1.11986

.OPERva   c>  
 Polar accumulation disabled

.OPERv   c>  
        airfoil                    Re           Mach       Ncrit  XtripT  XtripB     file
       ------------------------  ------------  ----------  -----  ------  ------    -------------------
    1  AG 36                     2.430e5       0.000        9.00   1.000   1.000    

Enter polar output filename   s>  
 Output file exists.  Overwrite?  Y

.OPERv   c>  
 XFOIL   c>  
 XFOIL   c>  