
 ===================================================
  XFOIL Version 6.99
  Copyright (C) 2000   Mark Drela, Harold Youngren

  This software comes with ABSOLUTELY NO WARRANTY,
    subject to the GNU General Public License.

  Caveat computor
 ===================================================

 File  xfoil.def  not found

   QUIT    Exit program

  .OPER    Direct operating point(s)
  .MDES    Complex mapping design routine
  .QDES    Surface speed design routine
  .GDES    Geometry design routine

   SAVE f  Write airfoil to labeled coordinate file
   PSAV f  Write airfoil to plain coordinate file
   ISAV f  Write airfoil to ISES coordinate file
   MSAV f  Write airfoil to MSES coordinate file
   REVE    Reverse written-airfoil node ordering

   LOAD f  Read buffer airfoil from coordinate file
   NACA i  Set NACA 4,5-digit airfoil and buffer airfoil
   INTE    Set buffer airfoil by interpolating two airfoils
   NORM    Buffer airfoil normalization toggle
   XYCM rr Change CM reference location, currently  0.25000 0.00000

   BEND    Display structural properties of current airfoil

   PCOP    Set current-airfoil panel nodes directly from buffer airfoil points
   PANE    Set current-airfoil panel nodes ( 160 ) based on curvature
  .PPAR    Show/change paneling

  .PLOP    Plotting options

   WDEF f  Write  current-settings file
   RDEF f  Reread current-settings file
   NAME s  Specify new airfoil name
   NINC    Increment name version number

   Z       Zoom    | (available in all menus)
   U       Unzoom  | 

 XFOIL   c>  
 Labeled airfoil file.  Name:  HT 14                                           

 Number of input coordinate points: 144
 Counterclockwise ordering
 Max thickness =     0.075755  at x =   0.200
 Max camber    =     0.118164  at x =   0.799

  LE  x,y  =   0.00015   0.00208  |   Chord =   0.95221
  TE  x,y  =   0.94148  -0.14144  |

 Current airfoil nodes set from buffer airfoil nodes ( 144 )

 WARNING: Poor input coordinate distribution
          Excessive panel angle  -49.5  at i = 131
          Repaneling with PANE and/or PPAR suggested
           (doing GDES,CADD before repaneling _may_
            improve excessively coarse LE spacing

 XFOIL   c>  
.OPERi   c>  
Enter Reynolds number   r>  
 M  =    0.0000
 Re =    243000

.OPERv   c>   Calculating unit vorticity distributions ...
 Calculating wake trajectory ...
 Calculating source influence matrix ...

 Solving BL system ...

 Initializing BL ...
    side            1  ...
 MRCHUE: Inverse mode at  20     Hk =   3.800
 MRCHUE: Inverse mode at  21     Hk =   4.758
 MRCHUE: Inverse mode at  22     Hk =   5.629
 MRCHUE: Convergence failed at  23  side 1    Res =  0.5050E+01
 MRCHUE: Inverse mode at  24     Hk =   6.518
 MRCHUE: Inverse mode at  25     Hk =   7.392
 MRCHUE: Inverse mode at  26     Hk =   8.278
 MRCHUE: Inverse mode at  27     Hk =   9.192
 MRCHUE: Inverse mode at  28     Hk =   6.594
 MRCHUE: Inverse mode at  29     Hk =   3.256
 MRCHUE: Inverse mode at  30     Hk =   2.500
 MRCHUE: Inverse mode at  31     Hk =   2.500
 MRCHUE: Inverse mode at  32     Hk =   2.500
 MRCHUE: Convergence failed at  77  side 1    Res =  0.9269E+00
 MRCHUE: Convergence failed at  78  side 1    Res =  0.3229E+00
 MRCHUE: Inverse mode at  81     Hk =   2.500
 MRCHUE: Inverse mode at  82     Hk =   2.500
 MRCHUE: Inverse mode at  83     Hk =   2.500
 MRCHUE: Inverse mode at  84     Hk =   2.500
 MRCHUE: Convergence failed at  85  side 1    Res =  0.6193E+01
 MRCHUE: Inverse mode at  86     Hk =   2.500
 MRCHUE: Convergence failed at  87  side 1    Res =  0.5159E+01
 MRCHUE: Inverse mode at  88     Hk =   2.500
    side            2  ...
 MRCHUE: Inverse mode at  30     Hk =   3.800
 MRCHUE: Inverse mode at  31     Hk =   4.265
 MRCHUE: Inverse mode at  32     Hk =   4.713
 MRCHUE: Inverse mode at  33     Hk =   5.145
 MRCHUE: Inverse mode at  34     Hk =   5.566
 MRCHUE: Inverse mode at  35     Hk =   5.975
 MRCHUE: Inverse mode at  36     Hk =   6.376
 MRCHUE: Inverse mode at  37     Hk =   6.769
 MRCHUE: Inverse mode at  38     Hk =   7.155
 MRCHUE: Inverse mode at  39     Hk =   7.534
 MRCHUE: Inverse mode at  40     Hk =   7.908
 MRCHUE: Inverse mode at  41     Hk =   8.276
 MRCHUE: Inverse mode at  42     Hk =   8.640
 MRCHUE: Inverse mode at  43     Hk =   8.999
 MRCHUE: Inverse mode at  44     Hk =   9.209
 MRCHUE: Inverse mode at  45     Hk =   9.315
 MRCHUE: Inverse mode at  46     Hk =   9.391
 MRCHUE: Inverse mode at  47     Hk =   9.542
 MRCHUE: Inverse mode at  48     Hk =   9.436
 MRCHUE: Inverse mode at  49     Hk =   7.851
 MRCHUE: Inverse mode at  50     Hk =   6.769
 MRCHUE: Inverse mode at  51     Hk =   5.937
 MRCHUE: Inverse mode at  52     Hk =   5.259
 MRCHUE: Inverse mode at  53     Hk =   4.693
 MRCHUE: Inverse mode at  54     Hk =   4.218
 MRCHUE: Inverse mode at  55     Hk =   3.827
 MRCHUE: Inverse mode at  56     Hk =   3.519
 MRCHUE: Inverse mode at  57     Hk =   3.283
 MRCHUE: Inverse mode at  58     Hk =   3.160

 MRCHDU: Convergence failed at  29  side 1    Res =  0.2606E+01
 MRCHDU: Convergence failed at  30  side 1    Res =  0.9894E+02
 MRCHDU: Convergence failed at  31  side 1    Res =  0.2119E+02
 MRCHDU: Convergence failed at  32  side 1    Res =  0.1660E+02
 MRCHDU: Convergence failed at  33  side 1    Res =  0.8189E+01
 MRCHDU: Convergence failed at  34  side 1    Res =  0.6114E+01
 MRCHDU: Convergence failed at  35  side 1    Res =  0.1076E+02
 MRCHDU: Convergence failed at  36  side 1    Res =  0.1079E+03
 MRCHDU: Convergence failed at  37  side 1    Res =  0.1192E+02
 MRCHDU: Convergence failed at  38  side 1    Res =  0.2133E+02
 MRCHDU: Convergence failed at  39  side 1    Res =  0.1120E+02
 MRCHDU: Convergence failed at  40  side 1    Res =  0.2723E+02
 MRCHDU: Convergence failed at  41  side 1    Res =  0.2646E+02
 MRCHDU: Convergence failed at  42  side 1    Res =  0.2721E+02
 MRCHDU: Convergence failed at  43  side 1    Res =  0.3728E+02
 MRCHDU: Convergence failed at  44  side 1    Res =  0.3595E+02
 MRCHDU: Convergence failed at  45  side 1    Res =  0.3375E+02
 MRCHDU: Convergence failed at  46  side 1    Res =  0.3347E+02
 MRCHDU: Convergence failed at  47  side 1    Res =  0.3249E+02
 MRCHDU: Convergence failed at  48  side 1    Res =  0.1485E+02
 MRCHDU: Convergence failed at  49  side 1    Res =  0.2548E+02
 MRCHDU: Convergence failed at  50  side 1    Res =  0.6144E+02
 MRCHDU: Convergence failed at  51  side 1    Res =  0.5904E+02
 MRCHDU: Convergence failed at  52  side 1    Res =  0.1445E+02
 MRCHDU: Convergence failed at  53  side 1    Res =  0.5464E+02
 MRCHDU: Convergence failed at  54  side 1    Res =  0.5354E+02
 MRCHDU: Convergence failed at  55  side 1    Res =  0.3022E+02
 MRCHDU: Convergence failed at  56  side 1    Res =  0.9399E+02
 MRCHDU: Convergence failed at  57  side 1    Res =  0.9996E+02
 MRCHDU: Convergence failed at  58  side 1    Res =  0.1012E+03
 MRCHDU: Convergence failed at  59  side 1    Res =  0.1007E+03
 MRCHDU: Convergence failed at  60  side 1    Res =  0.1005E+03
 MRCHDU: Convergence failed at  61  side 1    Res =  0.9456E+02
 MRCHDU: Convergence failed at  62  side 1    Res =  0.8974E+02
 MRCHDU: Convergence failed at  63  side 1    Res =  0.8309E+03
 MRCHDU: Convergence failed at  64  side 1    Res =  0.3106E+02
 MRCHDU: Convergence failed at  65  side 1    Res =  0.5674E+02
 MRCHDU: Convergence failed at  66  side 1    Res =  0.2823E+02
 MRCHDU: Convergence failed at  67  side 1    Res =  0.2736E+02
 MRCHDU: Convergence failed at  68  side 1    Res =  0.4886E+03
 MRCHDU: Convergence failed at  69  side 1    Res =  0.2640E+02
 MRCHDU: Convergence failed at  70  side 1    Res =  0.1510E+02
 MRCHDU: Convergence failed at  71  side 1    Res =  0.1270E+02
 MRCHDU: Convergence failed at  72  side 1    Res =  0.3431E+02
 MRCHDU: Convergence failed at  73  side 1    Res =  0.3393E+02
 MRCHDU: Convergence failed at  74  side 1    Res =  0.1027E+02
 MRCHDU: Convergence failed at  75  side 1    Res =  0.1160E-01
 MRCHDU: Convergence failed at  87  side 1    Res =  0.2787E+01
 MRCHDU: Convergence failed at  88  side 1    Res =  0.3000E+01
 Side 1  free  transition at x/c =  0.0202   28
 Side 2  free  transition at x/c =  0.8530   48
 idif Ue xi dudx           1  0.10832427      8.81946087E-03   12.282413    
 Uenew xinew           2  1.48731181E-02  1.21092796E-03

   1   rms: 0.2232E+01   max: 0.6590E+01   T at   48  2   RLX: 0.124
       a =  0.000      CL =  7.9483
      Cm = -1.3560     CD =  0.01969   =>   CDf =  0.00209    CDp =  0.01760

 MRCHDU: Convergence failed at  60  side 1    Res =  0.6460E-01
 MRCHDU: Convergence failed at  77  side 1    Res =  0.2217E+01
 MRCHDU: Convergence failed at  78  side 1    Res =  0.7062E+01
 MRCHDU: Convergence failed at  79  side 1    Res =  0.8261E+01
 MRCHDU: Convergence failed at  80  side 1    Res =  0.1800E+02
 MRCHDU: Convergence failed at  81  side 1    Res =  0.2031E+02
 MRCHDU: Convergence failed at  82  side 1    Res =  0.9365E+02
 MRCHDU: Convergence failed at  83  side 1    Res =  0.7000E+01
 MRCHDU: Convergence failed at  84  side 1    Res =  0.9608E+01
 MRCHDU: Convergence failed at  85  side 1    Res =  0.1519E+04
 MRCHDU: Convergence failed at  86  side 1    Res =  0.2945E+05
 MRCHDU: Convergence failed at  87  side 1    Res =  0.6110E+01
 Side 1  free  transition at x/c =  0.0205   27
 Side 2  free  transition at x/c =  0.8238   46

   2   rms: 0.2065E+01   max: 0.5688E+01   T at   46  2   RLX: 0.080
       a =  0.000      CL =  7.4178
      Cm = -1.4755     CD =  0.01037   =>   CDf =  0.03374    CDp = -0.02337

 MRCHDU: Convergence failed at  60  side 1    Res =  0.5246E-01
 Side 1  free  transition at x/c =  0.0212   27
 Side 2  free  transition at x/c =  0.8109   45

   3   rms: 0.1782E+01   max: 0.4567E+01   T at   45  2   RLX: 0.091
       a =  0.000      CL =  6.7768
      Cm = -1.3340     CD =  0.01017   =>   CDf =  0.03169    CDp = -0.02152

 MRCHDU: Convergence failed at  60  side 1    Res =  0.5602E-01
 Side 1  free  transition at x/c =  0.0217   28
 Side 2  free  transition at x/c =  0.8011   44
 idif Ue xi dudx           1  8.76422897E-02  6.64317608E-03   13.192829    
 Uenew xinew           2  6.91991416E-04  5.24520874E-05

   4   rms: 0.1632E+01   max: 0.5934E+01   T at   44  2   RLX: 0.102
       a =  0.000      CL =  6.1462
      Cm = -1.1955     CD =  0.01008   =>   CDf =  0.02992    CDp = -0.01984

 MRCHDU: Convergence failed at  59  side 1    Res =  0.5213E-01
 Side 1  free  transition at x/c =  0.0219   27
 Side 2  free  transition at x/c =  0.7834   44

   5   rms: 0.3293E+01   max: -.4832E+02   T at    2  2   RLX: 0.010
       a =  0.000      CL =  6.0884
      Cm = -1.1832     CD =  0.01055   =>   CDf =  0.02634    CDp = -0.01578

 MRCHDU: Convergence failed at  59  side 1    Res =  0.5123E-01
 Side 1  free  transition at x/c =  0.0220   27
 Side 2  free  transition at x/c =  0.7816   44

   6   rms: 0.1500E+01   max: 0.4503E+01   T at   44  2   RLX: 0.115
       a =  0.000      CL =  5.4686
      Cm = -1.0489     CD =  0.01094   =>   CDf =  0.02608    CDp = -0.01515

 MRCHDU: Convergence failed at  59  side 1    Res =  0.4422E-01
 Side 1  free  transition at x/c =  0.0226   27
 Side 2  free  transition at x/c =  0.7660   43

   7   rms: 0.1524E+01   max: 0.6189E+01   T at   43  2   RLX: 0.127
       a =  0.000      CL =  4.8564
      Cm = -0.9187     CD =  0.01213   =>   CDf =  0.02343    CDp = -0.01130

 MRCHDU: Convergence failed at  59  side 1    Res =  0.2886E-01
 Side 1  free  transition at x/c =  0.0245   27
 Side 2  free  transition at x/c =  0.7467   42
 idif Ue xi dudx           1  0.12110887      7.06887245E-03   17.132700    
 Uenew xinew           2  2.28603259E-02  1.33430958E-03

   8   rms: 0.1782E+01   max: 0.7040E+01   T at   42  2   RLX: 0.084
       a =  0.000      CL =  4.4677
      Cm = -0.8407     CD =  0.01395   =>   CDf =  0.02173    CDp = -0.00778

 MRCHDU: Convergence failed at  58  side 1    Res =  0.8949E-01
 Side 1  free  transition at x/c =  0.0281   27
 Side 2  free  transition at x/c =  0.7318   43

   9   rms: 0.1981E+01   max: 0.4420E+01   T at   43  2   RLX: 0.074
       a =  0.000      CL =  4.1382
      Cm = -0.7740     CD =  0.01592   =>   CDf =  0.01927    CDp = -0.00335

 MRCHDU: Convergence failed at  58  side 1    Res =  0.1039E+00
 MRCHDU: Convergence failed at  59  side 1    Res =  0.7132E-01
 Side 1  free  transition at x/c =  0.0315   28
 Side 2  free  transition at x/c =  0.7285   42
 idif Ue xi dudx           1  0.11460149      5.92267513E-03   19.349617    
 Uenew xinew           2  1.73368119E-02  8.95977020E-04

  10   rms: 0.1755E+01   max: 0.8292E+01   T at   42  2   RLX: 0.103
       a =  0.000      CL =  3.7041
      Cm = -0.6808     CD =  0.01804   =>   CDf =  0.01829    CDp = -0.00025
 VISCAL:  Convergence failed
 Type "!" to continue iterating

.OPERv   c>  
  Top    surface:  y =  0.0001     y/t = 1.0
  Bottom surface:  y = -0.0000     y/t = 0.0

 Flap hinge x,y :  0.0000  0.0000
                                           2  2
 Hinge moment/span = 1.606928  x  1/2 rho V  c 
                                           2   
 x-Force     /span = 0.237950  x  1/2 rho V  c 
                                           2   
 y-Force     /span = 3.704154  x  1/2 rho V  c 


.OPERv   c>   SINVRT: spline inversion failed. Input value returned.
 SINVRT: spline inversion failed. Input value returned.
 Calculating wake trajectory ...
 Calculating source influence matrix ...

 Solving BL system ...

 MRCHDU: Convergence failed at  28  side 1    Res =  0.7655E-01
 MRCHDU: Convergence failed at  58  side 1    Res =  0.8736E-01
 Side 1  free  transition at x/c =  0.0452   29
 Side 2  free  transition at x/c =  0.7095   42

   1   rms: 0.1601E+01   max: 0.9645E+01   T at   42  2   RLX: 0.087
       a =  1.000      CL =  3.4199
      Cm = -0.6141     CD =  0.02155   =>   CDf =  0.01622    CDp =  0.00534

 MRCHDU: Convergence failed at  58  side 1    Res =  0.8267E-01
 Side 1  free  transition at x/c =  0.0528   29
 Side 2  free  transition at x/c =  0.6937   42

   2   rms: 0.1207E+01   max: -.8519E+01   C at   29  1   RLX: 0.059
       a =  1.000      CL =  3.2633
      Cm = -0.5781     CD =  0.02470   =>   CDf =  0.01497    CDp =  0.00974

 MRCHDU: Convergence failed at  58  side 1    Res =  0.2899E-01
 Side 1  free  transition at x/c =  0.0522   29
 Side 2  free  transition at x/c =  0.6916   42
 idif Ue xi dudx           1  0.12128869      5.37645817E-03   22.559219    
 Uenew xinew           2  2.10085660E-02  9.31262970E-04

   3   rms: 0.9193E+00   max: 0.1925E+01   D at   74  2   RLX: 0.259
       a =  1.000      CL =  2.6939
      Cm = -0.4556     CD =  0.03185   =>   CDf =  0.01507    CDp =  0.01679

 Side 1  free  transition at x/c =  0.0518   28
 Side 2  free  transition at x/c =  0.6873   42

   4   rms: 0.6831E+00   max: 0.3078E+01   T at   42  2   RLX: 0.297
       a =  1.000      CL =  2.2343
      Cm = -0.3526     CD =  0.03928   =>   CDf =  0.01236    CDp =  0.02692

 Side 1  free  transition at x/c =  0.0520   28
 Side 2  free  transition at x/c =  0.6691   41
 idif Ue xi dudx           1  0.10537899      4.23848629E-03   24.862411    
 Uenew xinew           2  6.83162920E-03  2.74777412E-04

   5   rms: 0.5452E+00   max: 0.3516E+01   T at   41  2   RLX: 0.246
       a =  1.000      CL =  1.9766
      Cm = -0.2970     CD =  0.04508   =>   CDf =  0.01072    CDp =  0.03436

 Side 1  free  transition at x/c =  0.0525   27
 Side 2  free  transition at x/c =  0.6517   41

   6   rms: 0.5377E+00   max: -.3784E+01   T at   41  2   RLX: 0.132
       a =  1.000      CL =  1.9032
      Cm = -0.2814     CD =  0.04968   =>   CDf =  0.00920    CDp =  0.04048

 Side 1  free  transition at x/c =  0.0500   27
 Side 2  free  transition at x/c =  0.6608   42

   7   rms: 0.2994E+00   max: 0.5992E+00   D at   80  2   RLX: 0.923
       a =  1.000      CL =  1.4004
      Cm = -0.1766     CD =  0.06062   =>   CDf =  0.00878    CDp =  0.05184

 Side 1  free  transition at x/c =  0.0446   26
 Side 2  free  transition at x/c =  0.6512   41

   8   rms: 0.6584E-01   max: 0.4435E+00   T at   41  2
       a =  1.000      CL =  1.3798
      Cm = -0.1701     CD =  0.05960   =>   CDf =  0.00688    CDp =  0.05273

 Side 1  free  transition at x/c =  0.0416   26
 Side 2  free  transition at x/c =  0.6433   41

   9   rms: 0.4589E-01   max: -.1923E+00   T at   41  2
       a =  1.000      CL =  1.4090
      Cm = -0.1748     CD =  0.05845   =>   CDf =  0.00671    CDp =  0.05174

 Side 1  free  transition at x/c =  0.0391   26
 Side 2  free  transition at x/c =  0.6492   41

  10   rms: 0.3239E-01   max: -.3027E+00   T at   41  2
       a =  1.000      CL =  1.4167
      Cm = -0.1766     CD =  0.05917   =>   CDf =  0.00687    CDp =  0.05230
 VISCAL:  Convergence failed
 SINVRT: spline inversion failed. Input value returned.
 SINVRT: spline inversion failed. Input value returned.
 Type "!" to continue iterating

.OPERv   c>   SINVRT: spline inversion failed. Input value returned.
 SINVRT: spline inversion failed. Input value returned.

 Flap hinge x,y :  0.0000  0.0000
                                           2  2
 Hinge moment/span = 0.000000  x  1/2 rho V  c 
                                           2   
 x-Force     /span = 0.000000  x  1/2 rho V  c 
                                           2   
 y-Force     /span = 0.000000  x  1/2 rho V  c 


.OPERv   c>   SINVRT: spline inversion failed. Input value returned.
 SINVRT: spline inversion failed. Input value returned.
 Calculating wake trajectory ...
 Calculating source influence matrix ...

 Solving BL system ...

 Side 1  free  transition at x/c =  0.0386   26
 Side 2  free  transition at x/c =  0.6569   42

   1   rms: 0.2632E+00   max: 0.2076E+01   T at   26  1   RLX: 0.357
       a =  2.000      CL =  1.4499
      Cm = -0.1743     CD =  0.05886   =>   CDf =  0.00664    CDp =  0.05222

 MRCHDU: Convergence failed at  27  side 1    Res =  0.1229E+02
 MRCHDU: Convergence failed at  28  side 1    Res =  0.5619E+02
 MRCHDU: Convergence failed at  29  side 1    Res =  0.1360E+02
 MRCHDU: Convergence failed at  30  side 1    Res =  0.9039E+01
 MRCHDU: Convergence failed at  31  side 1    Res =  0.8988E+01
 MRCHDU: Convergence failed at  32  side 1    Res =  0.1062E+02
 MRCHDU: Convergence failed at  33  side 1    Res =  0.1289E+02
 MRCHDU: Convergence failed at  34  side 1    Res =  0.3228E+02
 MRCHDU: Convergence failed at  35  side 1    Res =  0.2660E+02
 MRCHDU: Convergence failed at  36  side 1    Res =  0.2510E+02
 MRCHDU: Convergence failed at  37  side 1    Res =  0.4321E+02
 MRCHDU: Convergence failed at  38  side 1    Res =  0.4004E+02
 MRCHDU: Convergence failed at  39  side 1    Res =  0.2226E+02
 MRCHDU: Convergence failed at  40  side 1    Res =  0.2158E+02
 MRCHDU: Convergence failed at  41  side 1    Res =  0.1896E+02
 MRCHDU: Convergence failed at  42  side 1    Res =  0.2022E+02
 MRCHDU: Convergence failed at  43  side 1    Res =  0.2144E+02
 MRCHDU: Convergence failed at  44  side 1    Res =  0.2246E+02
 MRCHDU: Convergence failed at  45  side 1    Res =  0.2378E+02
 MRCHDU: Convergence failed at  46  side 1    Res =  0.2832E+02
 MRCHDU: Convergence failed at  47  side 1    Res =  0.3001E+02
 MRCHDU: Convergence failed at  48  side 1    Res =  0.3036E+02
 MRCHDU: Convergence failed at  49  side 1    Res =  0.2776E+02
 MRCHDU: Convergence failed at  50  side 1    Res =  0.2842E+02
 MRCHDU: Convergence failed at  51  side 1    Res =  0.2946E+02
 MRCHDU: Convergence failed at  52  side 1    Res =  0.2986E+02
 MRCHDU: Convergence failed at  53  side 1    Res =  0.3067E+02
 MRCHDU: Convergence failed at  54  side 1    Res =  0.3133E+02
 MRCHDU: Convergence failed at  55  side 1    Res =  0.2639E+02
 MRCHDU: Convergence failed at  56  side 1    Res =  0.2672E+02
 MRCHDU: Convergence failed at  57  side 1    Res =  0.2708E+02
 MRCHDU: Convergence failed at  58  side 1    Res =  0.2728E+02
 MRCHDU: Convergence failed at  59  side 1    Res =  0.2731E+02
 MRCHDU: Convergence failed at  60  side 1    Res =  0.3250E+02
 MRCHDU: Convergence failed at  61  side 1    Res =  0.3191E+02
 MRCHDU: Convergence failed at  62  side 1    Res =  0.3238E+02
 MRCHDU: Convergence failed at  63  side 1    Res =  0.3173E+02
 MRCHDU: Convergence failed at  64  side 1    Res =  0.3614E+02
 MRCHDU: Convergence failed at  65  side 1    Res =  0.3681E+02
 MRCHDU: Convergence failed at  66  side 1    Res =  0.1493E+03
 MRCHDU: Convergence failed at  67  side 1    Res =  0.2357E+03
 MRCHDU: Convergence failed at  68  side 1    Res =  0.7775E+02
 MRCHDU: Convergence failed at  69  side 1    Res =  0.7097E+02
 MRCHDU: Convergence failed at  70  side 1    Res =  0.2415E+02
 MRCHDU: Convergence failed at  71  side 1    Res =  0.8612E+02
 MRCHDU: Convergence failed at  72  side 1    Res =  0.1119E+03
 MRCHDU: Convergence failed at  73  side 1    Res =  0.8520E+02
 MRCHDU: Convergence failed at  74  side 1    Res =  0.6441E+02
 MRCHDU: Convergence failed at  75  side 1    Res =  0.4090E+02
 MRCHDU: Convergence failed at  76  side 1    Res =  0.2422E+03
 MRCHDU: Convergence failed at  77  side 1    Res =  0.4400E+02
 MRCHDU: Convergence failed at  78  side 1    Res =  0.4057E+02
 MRCHDU: Convergence failed at  79  side 1    Res =  0.2462E+02
 MRCHDU: Convergence failed at  80  side 1    Res =  0.3755E+02
 MRCHDU: Convergence failed at  81  side 1    Res =  0.4517E+02
 MRCHDU: Convergence failed at  82  side 1    Res =  0.5468E+02
 MRCHDU: Convergence failed at  83  side 1    Res =  0.2324E+03
 MRCHDU: Convergence failed at  79  side 2    Res =  0.2551E+01
 Side 1  free  transition at x/c =  0.0340   26
 Side 2  free  transition at x/c =  0.6597   41

   2   rms: 0.1683E+01   max: 0.8030E+01   D at   83  1   RLX: 0.187
       a =  2.000      CL =  3.2632
      Cm = -0.7247     CD =  0.03342   =>   CDf =  0.00061    CDp =  0.03281

 Side 1  free  transition at x/c =  0.0306   25
 Side 2  free  transition at x/c =  0.6595   41

   3   rms: 0.8719E+00   max: 0.5375E+01   T at   25  1   RLX: 0.174
       a =  2.000      CL =  2.4413
      Cm = -0.4892     CD =  0.10606   =>   CDf =  0.00171    CDp =  0.10435

 Side 1  free  transition at x/c =  0.0277   25
 Side 2  free  transition at x/c =  0.6609   41
 idif Ue xi dudx           1  0.12835948      4.96006012E-03   25.878614    
 Uenew xinew           2  2.57841889E-02  9.96351242E-04

   4   rms: 0.5838E+00   max: 0.6060E+00   D at   77  2   RLX: 0.431
       a =  2.000      CL =  1.8972
      Cm = -0.3261     CD =  0.11050   =>   CDf =  0.00175    CDp =  0.10875

 Side 1  free  transition at x/c =  0.0297   24
 Side 2  free  transition at x/c =  0.6605   42

   5   rms: 0.4385E+00   max: -.5836E+00   T at   79  2   RLX: 0.484
       a =  2.000      CL =  1.5651
      Cm = -0.2208     CD =  0.10756   =>   CDf =  0.00150    CDp =  0.10606

 Side 1  free  transition at x/c =  0.0353   25
 Side 2  free  transition at x/c =  0.6640   42

   6   rms: 0.8683E+00   max: -.3281E+01   D at   35  1   RLX: 0.152
       a =  2.000      CL =  1.4947
      Cm = -0.1817     CD =  0.09267   =>   CDf =  0.00216    CDp =  0.09051

 Side 1  free  transition at x/c =  0.0347   26
 Side 2  free  transition at x/c =  0.6701   41
 idif Ue xi dudx           1  0.12969692      4.82201576E-03   26.896826    
 Uenew xinew           2  2.30857302E-02  8.58306885E-04

   7   rms: 0.2108E+02   max: 0.1196E+03   T at   41  2   RLX: 0.008
       a =  2.000      CL =  1.3767
      Cm = -0.1611     CD =  0.09817   =>   CDf =  0.00324    CDp =  0.09492

 Side 1  free  transition at x/c =  0.0369   25
 Side 2  free  transition at x/c =  0.6488   41

   8   rms: 0.9079E+00   max: -.4844E+01   T at   41  2   RLX: 0.103
       a =  2.000      CL =  1.3876
      Cm = -0.1571     CD =  0.09929   =>   CDf =  0.00256    CDp =  0.09673

 Side 1  free  transition at x/c =  0.0372   26
 Side 2  free  transition at x/c =  0.6590   41

   9   rms: 0.9857E+00   max: -.5269E+01   D at   31  1   RLX: 0.095
       a =  2.000      CL =  1.3725
      Cm = -0.1607     CD =  0.10449   =>   CDf =  0.00315    CDp =  0.10134

 Side 1  free  transition at x/c =  0.0423   27
 Side 2  free  transition at x/c =  0.6592   41

  10   rms: 0.1276E+01   max: -.4199E+01   D at   31  1   RLX: 0.119
       a =  2.000      CL =  1.4473
      Cm = -0.1441     CD =  0.08791   =>   CDf =  0.00324    CDp =  0.08467
 VISCAL:  Convergence failed
 SINVRT: spline inversion failed. Input value returned.
 SINVRT: spline inversion failed. Input value returned.
 Type "!" to continue iterating

.OPERv   c>   SINVRT: spline inversion failed. Input value returned.
 SINVRT: spline inversion failed. Input value returned.

 Flap hinge x,y :  0.0000  0.0000
                                           2  2
 Hinge moment/span = 0.006686  x  1/2 rho V  c 
                                           2   
 x-Force     /span = 0.002087  x  1/2 rho V  c 
                                           2   
 y-Force     /span = 0.013890  x  1/2 rho V  c 


.OPERv   c>   SINVRT: spline inversion failed. Input value returned.
 SINVRT: spline inversion failed. Input value returned.
 Calculating wake trajectory ...
 Calculating source influence matrix ...

 Solving BL system ...

 Side 1  free  transition at x/c =  0.0363   26
 Side 2  free  transition at x/c =  0.6651   41

   1   rms: 0.1693E+01   max: 0.6865E+01   T at   26  1   RLX: 0.073
       a =  3.000      CL =  1.5011
      Cm = -0.1406     CD =  0.07748   =>   CDf =  0.00362    CDp =  0.07386

 Side 1  free  transition at x/c =  0.0314   26
 Side 2  free  transition at x/c =  0.6705   41

   2   rms: 0.3165E+01   max: 0.1598E+02   T at   26  1   RLX: 0.048
       a =  3.000      CL =  1.5834
      Cm = -0.1505     CD =  0.07338   =>   CDf =  0.00368    CDp =  0.06970

 MRCHDU: Convergence failed at  27  side 1    Res =  0.6641E+01
 MRCHDU: Convergence failed at  28  side 1    Res =  0.4471E+01
 MRCHDU: Convergence failed at  29  side 1    Res =  0.2081E+02
 MRCHDU: Convergence failed at  30  side 1    Res =  0.7127E+01
 MRCHDU: Convergence failed at  31  side 1    Res =  0.7875E+01
 MRCHDU: Convergence failed at  32  side 1    Res =  0.2848E+02
 MRCHDU: Convergence failed at  33  side 1    Res =  0.2779E+02
 MRCHDU: Convergence failed at  34  side 1    Res =  0.1063E+03
 MRCHDU: Convergence failed at  35  side 1    Res =  0.5854E+02
 MRCHDU: Convergence failed at  36  side 1    Res =  0.8612E+02
 MRCHDU: Convergence failed at  37  side 1    Res =  0.1393E+03
 MRCHDU: Convergence failed at  38  side 1    Res =  0.4426E+02
 MRCHDU: Convergence failed at  39  side 1    Res =  0.3730E+02
 MRCHDU: Convergence failed at  40  side 1    Res =  0.4273E+02
 MRCHDU: Convergence failed at  41  side 1    Res =  0.4596E+02
 MRCHDU: Convergence failed at  42  side 1    Res =  0.1979E+04
 MRCHDU: Convergence failed at  43  side 1    Res =  0.4030E+02
 MRCHDU: Convergence failed at  44  side 1    Res =  0.1053E+02
 MRCHDU: Convergence failed at  45  side 1    Res =  0.3969E+02
 MRCHDU: Convergence failed at  46  side 1    Res =  0.3025E+02
 MRCHDU: Convergence failed at  47  side 1    Res =  0.2690E+02
 MRCHDU: Convergence failed at  48  side 1    Res =  0.2850E+02
 MRCHDU: Convergence failed at  49  side 1    Res =  0.3130E+02
 MRCHDU: Convergence failed at  50  side 1    Res =  0.3261E+02
 MRCHDU: Convergence failed at  51  side 1    Res =  0.3192E+02
 MRCHDU: Convergence failed at  52  side 1    Res =  0.4780E+02
 MRCHDU: Convergence failed at  53  side 1    Res =  0.3130E+02
 MRCHDU: Convergence failed at  54  side 1    Res =  0.4538E+02
 MRCHDU: Convergence failed at  55  side 1    Res =  0.1757E+02
 MRCHDU: Convergence failed at  56  side 1    Res =  0.2572E+02
 MRCHDU: Convergence failed at  57  side 1    Res =  0.7029E+02
 MRCHDU: Convergence failed at  58  side 1    Res =  0.5858E+02
 MRCHDU: Convergence failed at  59  side 1    Res =  0.6453E+02
 MRCHDU: Convergence failed at  60  side 1    Res =  0.7358E+02
 MRCHDU: Convergence failed at  61  side 1    Res =  0.8835E+02
 MRCHDU: Convergence failed at  62  side 1    Res =  0.6088E+02
 MRCHDU: Convergence failed at  63  side 1    Res =  0.6644E+02
 MRCHDU: Convergence failed at  64  side 1    Res =  0.1433E+03
 MRCHDU: Convergence failed at  65  side 1    Res =  0.7173E+02
 MRCHDU: Convergence failed at  66  side 1    Res =  0.5935E+02
 MRCHDU: Convergence failed at  67  side 1    Res =  0.3608E+02
 MRCHDU: Convergence failed at  68  side 1    Res =  0.5341E+02
 MRCHDU: Convergence failed at  69  side 1    Res =  0.8394E+02
 MRCHDU: Convergence failed at  70  side 1    Res =  0.1154E+03
 MRCHDU: Convergence failed at  71  side 1    Res =  0.5126E+03
 MRCHDU: Convergence failed at  72  side 1    Res =  0.3361E+03
 MRCHDU: Convergence failed at  73  side 1    Res =  0.9019E+02
 MRCHDU: Convergence failed at  74  side 1    Res =  0.2444E+03
 MRCHDU: Convergence failed at  75  side 1    Res =  0.2532E+02
 MRCHDU: Convergence failed at  76  side 1    Res =  0.3862E+02
 MRCHDU: Convergence failed at  77  side 1    Res =  0.9942E+02
 MRCHDU: Convergence failed at  78  side 1    Res =  0.1104E+03
 MRCHDU: Convergence failed at  79  side 1    Res =  0.3940E+02
 MRCHDU: Convergence failed at  80  side 1    Res =  0.3716E+02
 MRCHDU: Convergence failed at  81  side 1    Res =  0.2546E+02
 MRCHDU: Convergence failed at  82  side 1    Res =  0.2835E+02
 MRCHDU: Convergence failed at  83  side 1    Res =  0.3517E+02
 MRCHDU: Convergence failed at  84  side 1    Res =  0.8496E+03
 MRCHDU: Convergence failed at  78  side 2    Res =  0.4250E+01
 MRCHDU: Convergence failed at  79  side 2    Res =  0.1518E+02
 Side 1  free  transition at x/c =  0.0294   26
 Side 2  free  transition at x/c =  0.6847   41

   3   rms: 0.2463E+01   max: 0.1086E+02   D at   84  1   RLX: 0.138
       a =  3.000      CL =  4.3099
      Cm = -0.9717     CD =  0.03716   =>   CDf =  0.00030    CDp =  0.03686

 MRCHDU: Convergence failed at  76  side 2    Res =  0.4523E+01
 MRCHDU: Convergence failed at  77  side 2    Res =  0.5353E+01
 Side 1  free  transition at x/c =  0.0260   25
 Side 2  free  transition at x/c =  0.6844   41

   4   rms: 0.1024E+01   max: 0.8247E+00   D at   78  2   RLX: 0.176
       a =  3.000      CL =  2.9968
      Cm = -0.5843     CD =  0.11994   =>   CDf =  0.00148    CDp =  0.11846

 Side 1  free  transition at x/c =  0.0250   25
 Side 2  free  transition at x/c =  0.6850   41
 idif Ue xi dudx           1  0.13799454      5.97846508E-03   23.081936    
 Uenew xinew           2  3.53908353E-02  1.53326988E-03

   5   rms: 0.7712E+00   max: -.6354E+00   T at   82  2   RLX: 0.281
       a =  3.000      CL =  2.4351
      Cm = -0.4496     CD =  0.13133   =>   CDf =  0.00165    CDp =  0.12968

 Side 1  free  transition at x/c =  0.0270   25
 Side 2  free  transition at x/c =  0.6831   42

   6   rms: 0.5474E+00   max: -.6317E+00   T at   79  2   RLX: 0.442
       a =  3.000      CL =  1.8774
      Cm = -0.2904     CD =  0.12135   =>   CDf =  0.00142    CDp =  0.11994

 Side 1  free  transition at x/c =  0.0278   25
 Side 2  free  transition at x/c =  0.6837   42

   7   rms: 0.5216E+00   max: -.1545E+01   D at   36  1   RLX: 0.324
       a =  3.000      CL =  1.6751
      Cm = -0.2152     CD =  0.11871   =>   CDf =  0.00147    CDp =  0.11724

 Side 1  free  transition at x/c =  0.0277   25
 Side 2  free  transition at x/c =  0.6885   42

   8   rms: 0.1058E+01   max: -.4405E+01   D at   36  1   RLX: 0.114
       a =  3.000      CL =  1.6033
      Cm = -0.1832     CD =  0.11784   =>   CDf =  0.00137    CDp =  0.11647

 Side 1  free  transition at x/c =  0.0279   26
 Side 2  free  transition at x/c =  0.6983   42

   9   rms: 0.6365E+00   max: -.2830E+01   D at   33  1   RLX: 0.177
       a =  3.000      CL =  1.5759
      Cm = -0.1637     CD =  0.10818   =>   CDf =  0.00220    CDp =  0.10598

 Side 1  free  transition at x/c =  0.0278   26
 Side 2  free  transition at x/c =  0.6985   42

  10   rms: 0.1290E+01   max: -.4320E+01   D at   54  1   RLX: 0.116
       a =  3.000      CL =  1.6073
      Cm = -0.1428     CD =  0.09259   =>   CDf =  0.00239    CDp =  0.09019
 VISCAL:  Convergence failed
 SINVRT: spline inversion failed. Input value returned.
 SINVRT: spline inversion failed. Input value returned.
 Type "!" to continue iterating

.OPERv   c>   SINVRT: spline inversion failed. Input value returned.
 SINVRT: spline inversion failed. Input value returned.

 Flap hinge x,y :  0.0000  0.0000
                                           2  2
 Hinge moment/span = 0.059398  x  1/2 rho V  c 
                                           2   
 x-Force     /span = 0.018538  x  1/2 rho V  c 
                                           2   
 y-Force     /span = 0.123394  x  1/2 rho V  c 


.OPERv   c>   SINVRT: spline inversion failed. Input value returned.
 SINVRT: spline inversion failed. Input value returned.
 Calculating wake trajectory ...
 Calculating source influence matrix ...

 Solving BL system ...

 Side 1  free  transition at x/c =  0.0260   26
 Side 2  free  transition at x/c =  0.7024   42

   1   rms: 0.1656E+01   max: -.5818E+01   D at   42  1   RLX: 0.086
       a =  4.000      CL =  1.6560
      Cm = -0.1379     CD =  0.08741   =>   CDf =  0.00248    CDp =  0.08493

 Side 1  free  transition at x/c =  0.0241   26
 Side 2  free  transition at x/c =  0.7061   41
 idif Ue xi dudx           1  0.12470745      5.93173504E-03   21.023773    
 Uenew xinew           2  1.90272909E-02  9.05036926E-04

   2   rms: 0.2712E+01   max: -.1778E+02   T at    2  1   RLX: 0.028
       a =  4.000      CL =  1.6104
      Cm = -0.1358     CD =  0.10397   =>   CDf =  0.00429    CDp =  0.09968

 Side 1  free  transition at x/c =  0.0256   25
 Side 2  free  transition at x/c =  0.7004   42

   3   rms: 0.2657E+01   max: 0.7897E+01   D at   62  1   RLX: 0.048
       a =  4.000      CL =  1.5372
      Cm = -0.1446     CD =  0.11834   =>   CDf =  0.00341    CDp =  0.11492

 Side 1  free  transition at x/c =  0.0290   26
 Side 2  free  transition at x/c =  0.6936   42

   4   rms: 0.1042E+01   max: -.3734E+01   D at   43  1   RLX: 0.134
       a =  4.000      CL =  1.5170
      Cm = -0.1240     CD =  0.09328   =>   CDf =  0.00341    CDp =  0.08987

 Side 1  free  transition at x/c =  0.0273   26
 Side 2  free  transition at x/c =  0.6958   42

   5   rms: 0.6886E+00   max: -.2850E+01   D at   42  1   RLX: 0.175
       a =  4.000      CL =  1.5229
      Cm = -0.1240     CD =  0.09450   =>   CDf =  0.00423    CDp =  0.09027

 MRCHDU: Convergence failed at  39  side 1    Res =  0.4170E+00
 Side 1  free  transition at x/c =  0.0259   25
 Side 2  free  transition at x/c =  0.6976   42

   6   rms: 0.3503E+00   max: -.8576E+00   D at   69  1   RLX: 0.583
       a =  4.000      CL =  1.5425
      Cm = -0.1254     CD =  0.07496   =>   CDf =  0.00527    CDp =  0.06969

 Side 1  free  transition at x/c =  0.0231   25
 Side 2  free  transition at x/c =  0.7026   42

   7   rms: 0.2243E+00   max: -.7675E+00   D at   70  1   RLX: 0.651
       a =  4.000      CL =  1.6131
      Cm = -0.1396     CD =  0.07213   =>   CDf =  0.00421    CDp =  0.06793

 Side 1  free  transition at x/c =  0.0208   25
 Side 2  free  transition at x/c =  0.7098   41

   8   rms: 0.8969E-01   max: -.5060E+00   D at   73  1   RLX: 0.988
       a =  4.000      CL =  1.6273
      Cm = -0.1509     CD =  0.07551   =>   CDf =  0.00383    CDp =  0.07168

 Side 1  free  transition at x/c =  0.0203   25
 Side 2  free  transition at x/c =  0.7102   41

   9   rms: 0.3267E-01   max: -.2453E+00   D at   73  1
       a =  4.000      CL =  1.6164
      Cm = -0.1506     CD =  0.07709   =>   CDf =  0.00407    CDp =  0.07301

 Side 1  free  transition at x/c =  0.0204   25
 Side 2  free  transition at x/c =  0.7067   41

  10   rms: 0.1197E-01   max: -.6526E-01   D at   54  2
       a =  4.000      CL =  1.6116
      Cm = -0.1501     CD =  0.07663   =>   CDf =  0.00405    CDp =  0.07258
 VISCAL:  Convergence failed
 SINVRT: spline inversion failed. Input value returned.
 SINVRT: spline inversion failed. Input value returned.
 Type "!" to continue iterating

.OPERv   c>   SINVRT: spline inversion failed. Input value returned.
 SINVRT: spline inversion failed. Input value returned.

 Flap hinge x,y :  0.0000  0.0000
                                           2  2
 Hinge moment/span = 0.000000  x  1/2 rho V  c 
                                           2   
 x-Force     /span = 0.000000  x  1/2 rho V  c 
                                           2   
 y-Force     /span = 0.000000  x  1/2 rho V  c 


.OPERv   c>   SINVRT: spline inversion failed. Input value returned.
 SINVRT: spline inversion failed. Input value returned.
 Calculating wake trajectory ...
 Calculating source influence matrix ...

 Solving BL system ...

 Side 1  free  transition at x/c =  0.0204   25
 Side 2  free  transition at x/c =  0.7073   41

   1   rms: 0.1766E+00   max: 0.8409E+00   D at   72  1   RLX: 0.304
       a =  5.000      CL =  1.5988
      Cm = -0.1444     CD =  0.08220   =>   CDf =  0.00412    CDp =  0.07808

 Side 1  free  transition at x/c =  0.0203   25
 Side 2  free  transition at x/c =  0.7106   41

   2   rms: 0.1437E+00   max: -.7947E+00   T at   41  2   RLX: 0.629
       a =  5.000      CL =  1.5667
      Cm = -0.1364     CD =  0.09127   =>   CDf =  0.00357    CDp =  0.08770

 Side 1  free  transition at x/c =  0.0204   25
 Side 2  free  transition at x/c =  0.7187   42

   3   rms: 0.1182E+00   max: 0.8306E+00   D at   42  2
       a =  5.000      CL =  1.5351
      Cm = -0.1315     CD =  0.09651   =>   CDf =  0.00288    CDp =  0.09363

 Side 1  free  transition at x/c =  0.0205   25
 Side 2  free  transition at x/c =  0.7130   42

   4   rms: 0.1267E-01   max: -.8714E-01   T at   42  2
       a =  5.000      CL =  1.5338
      Cm = -0.1318     CD =  0.09502   =>   CDf =  0.00261    CDp =  0.09241

 Side 1  free  transition at x/c =  0.0205   25
 Side 2  free  transition at x/c =  0.7144   42

   5   rms: 0.1226E-02   max: -.7317E-02   D at   43  2
       a =  5.000      CL =  1.5341
      Cm = -0.1318     CD =  0.09510   =>   CDf =  0.00265    CDp =  0.09246

 Side 1  free  transition at x/c =  0.0205   25
 Side 2  free  transition at x/c =  0.7144   42

   6   rms: 0.4278E-04   max: -.1594E-03   D at   63  2
       a =  5.000      CL =  1.5341
      Cm = -0.1318     CD =  0.09511   =>   CDf =  0.00264    CDp =  0.09247
 SINVRT: spline inversion failed. Input value returned.
 SINVRT: spline inversion failed. Input value returned.

.OPERv   c>   SINVRT: spline inversion failed. Input value returned.
 SINVRT: spline inversion failed. Input value returned.

 Flap hinge x,y :  0.0000  0.0000
                                           2  2
 Hinge moment/span = -.000000  x  1/2 rho V  c 
                                           2   
 x-Force     /span = -.000000  x  1/2 rho V  c 
                                           2   
 y-Force     /span = 0.000000  x  1/2 rho V  c 


.OPERv   c>   SINVRT: spline inversion failed. Input value returned.
 SINVRT: spline inversion failed. Input value returned.

 Solving BL system ...

 Side 1  free  transition at x/c =  0.0205   25
 Side 2  free  transition at x/c =  0.7144   42

   1   rms: 0.2160E-05   max: 0.1370E-04   D at   42  2
       a =  5.000      CL =  1.5341
      Cm = -0.1318     CD =  0.09511   =>   CDf =  0.00264    CDp =  0.09247
 SINVRT: spline inversion failed. Input value returned.
 SINVRT: spline inversion failed. Input value returned.
 SINVRT: spline inversion failed. Input value returned.
 SINVRT: spline inversion failed. Input value returned.
 Calculating wake trajectory ...
 Calculating source influence matrix ...

 Solving BL system ...

 Side 1  free  transition at x/c =  0.0205   25
 Side 2  free  transition at x/c =  0.7144   42

   1   rms: 0.8400E-01   max: 0.3821E+00   D at   71  1   RLX: 0.281
       a =  5.500      CL =  1.5206
      Cm = -0.1300     CD =  0.09846   =>   CDf =  0.00265    CDp =  0.09580

 Side 1  free  transition at x/c =  0.0206   25
 Side 2  free  transition at x/c =  0.7150   42

   2   rms: 0.6047E-01   max: 0.2579E+00   D at   70  1
       a =  5.500      CL =  1.4880
      Cm = -0.1268     CD =  0.10740   =>   CDf =  0.00247    CDp =  0.10494

 Side 1  free  transition at x/c =  0.0207   25
 Side 2  free  transition at x/c =  0.7164   42

   3   rms: 0.1082E-01   max: -.5774E-01   D at   67  1
       a =  5.500      CL =  1.4862
      Cm = -0.1277     CD =  0.10615   =>   CDf =  0.00200    CDp =  0.10415

 Side 1  free  transition at x/c =  0.0207   25
 Side 2  free  transition at x/c =  0.7164   42

   4   rms: 0.5055E-03   max: 0.4588E-02   D at   73  1
       a =  5.500      CL =  1.4863
      Cm = -0.1277     CD =  0.10635   =>   CDf =  0.00208    CDp =  0.10427

 Side 1  free  transition at x/c =  0.0207   25
 Side 2  free  transition at x/c =  0.7164   42

   5   rms: 0.3294E-04   max: 0.1040E-03   D at   76  2
       a =  5.500      CL =  1.4863
      Cm = -0.1277     CD =  0.10634   =>   CDf =  0.00207    CDp =  0.10427
 SINVRT: spline inversion failed. Input value returned.
 SINVRT: spline inversion failed. Input value returned.
 SINVRT: spline inversion failed. Input value returned.
 SINVRT: spline inversion failed. Input value returned.
 Calculating wake trajectory ...
 Calculating source influence matrix ...

 Solving BL system ...

 Side 1  free  transition at x/c =  0.0207   25
 Side 2  free  transition at x/c =  0.7164   42

   1   rms: 0.8569E-01   max: 0.3615E+00   D at   69  1   RLX: 0.266
       a =  6.000      CL =  1.4726
      Cm = -0.1274     CD =  0.11019   =>   CDf =  0.00208    CDp =  0.10811

 Side 1  free  transition at x/c =  0.0208   25
 Side 2  free  transition at x/c =  0.7168   42

   2   rms: 0.6384E-01   max: 0.2592E+00   D at   70  1
       a =  6.000      CL =  1.4370
      Cm = -0.1283     CD =  0.12124   =>   CDf =  0.00194    CDp =  0.11929

 Side 1  free  transition at x/c =  0.0210   25
 Side 2  free  transition at x/c =  0.7179   42

   3   rms: 0.1089E-01   max: 0.9358E-01   D at   70  1
       a =  6.000      CL =  1.4362
      Cm = -0.1305     CD =  0.12030   =>   CDf =  0.00162    CDp =  0.11869

 Side 1  free  transition at x/c =  0.0210   25
 Side 2  free  transition at x/c =  0.7179   42

   4   rms: 0.1749E-02   max: 0.9564E-02   D at   68  1
       a =  6.000      CL =  1.4368
      Cm = -0.1307     CD =  0.12040   =>   CDf =  0.00165    CDp =  0.11875

 Side 1  free  transition at x/c =  0.0210   25
 Side 2  free  transition at x/c =  0.7180   42

   5   rms: 0.2461E-03   max: -.8351E-03   D at   50  1
       a =  6.000      CL =  1.4367
      Cm = -0.1307     CD =  0.12035   =>   CDf =  0.00163    CDp =  0.11872

 Side 1  free  transition at x/c =  0.0210   25
 Side 2  free  transition at x/c =  0.7180   42

   6   rms: 0.2711E-04   max: 0.8321E-04   D at   35  1
       a =  6.000      CL =  1.4367
      Cm = -0.1307     CD =  0.12036   =>   CDf =  0.00164    CDp =  0.11872
 SINVRT: spline inversion failed. Input value returned.
 SINVRT: spline inversion failed. Input value returned.
 SINVRT: spline inversion failed. Input value returned.
 SINVRT: spline inversion failed. Input value returned.
 Calculating wake trajectory ...
 Calculating source influence matrix ...

 Solving BL system ...

 Side 1  free  transition at x/c =  0.0210   25
 Side 2  free  transition at x/c =  0.7180   42

   1   rms: 0.1090E+00   max: 0.4135E+00   D at   64  1   RLX: 0.253
       a =  6.500      CL =  1.4245
      Cm = -0.1333     CD =  0.12596   =>   CDf =  0.00165    CDp =  0.12432

 Side 1  free  transition at x/c =  0.0211   25
 Side 2  free  transition at x/c =  0.7182   42

   2   rms: 0.9179E-01   max: 0.3467E+00   D at   64  1
       a =  6.500      CL =  1.3934
      Cm = -0.1447     CD =  0.14482   =>   CDf =  0.00154    CDp =  0.14328

 Side 1  free  transition at x/c =  0.0213   25
 Side 2  free  transition at x/c =  0.7187   42

   3   rms: 0.2241E-01   max: 0.1321E+00   D at   56  1
       a =  6.500      CL =  1.3966
      Cm = -0.1477     CD =  0.14283   =>   CDf =  0.00133    CDp =  0.14150

 Side 1  free  transition at x/c =  0.0213   25
 Side 2  free  transition at x/c =  0.7188   42

   4   rms: 0.2632E-01   max: 0.1451E+00   D at   43  1
       a =  6.500      CL =  1.3975
      Cm = -0.1471     CD =  0.14211   =>   CDf =  0.00142    CDp =  0.14070

 Side 1  free  transition at x/c =  0.0213   25
 Side 2  free  transition at x/c =  0.7189   42

   5   rms: 0.1965E-01   max: 0.9749E-01   D at   41  1
       a =  6.500      CL =  1.3972
      Cm = -0.1473     CD =  0.14236   =>   CDf =  0.00138    CDp =  0.14098

 Side 1  free  transition at x/c =  0.0213   25
 Side 2  free  transition at x/c =  0.7187   42

   6   rms: 0.2149E-01   max: 0.1132E+00   D at   42  1
       a =  6.500      CL =  1.3973
      Cm = -0.1472     CD =  0.14224   =>   CDf =  0.00139    CDp =  0.14085

 Side 1  free  transition at x/c =  0.0213   25
 Side 2  free  transition at x/c =  0.7187   42

   7   rms: 0.2109E-01   max: 0.1085E+00   D at   42  1
       a =  6.500      CL =  1.3973
      Cm = -0.1473     CD =  0.14230   =>   CDf =  0.00139    CDp =  0.14091

 Side 1  free  transition at x/c =  0.0213   25
 Side 2  free  transition at x/c =  0.7187   42

   8   rms: 0.2116E-01   max: 0.1096E+00   D at   42  1
       a =  6.500      CL =  1.3973
      Cm = -0.1472     CD =  0.14230   =>   CDf =  0.00139    CDp =  0.14091

 Side 1  free  transition at x/c =  0.0213   25
 Side 2  free  transition at x/c =  0.7187   42

   9   rms: 0.2116E-01   max: 0.1094E+00   D at   42  1
       a =  6.500      CL =  1.3973
      Cm = -0.1472     CD =  0.14231   =>   CDf =  0.00139    CDp =  0.14092

 Side 1  free  transition at x/c =  0.0213   25
 Side 2  free  transition at x/c =  0.7187   42

  10   rms: 0.2117E-01   max: 0.1095E+00   D at   42  1
       a =  6.500      CL =  1.3973
      Cm = -0.1472     CD =  0.14231   =>   CDf =  0.00139    CDp =  0.14092

 Side 1  free  transition at x/c =  0.0213   25
 Side 2  free  transition at x/c =  0.7187   42

  11   rms: 0.2117E-01   max: 0.1095E+00   D at   42  1
       a =  6.500      CL =  1.3973
      Cm = -0.1472     CD =  0.14231   =>   CDf =  0.00139    CDp =  0.14092

 Side 1  free  transition at x/c =  0.0213   25
 Side 2  free  transition at x/c =  0.7187   42

  12   rms: 0.2118E-01   max: 0.1095E+00   D at   42  1
       a =  6.500      CL =  1.3973
      Cm = -0.1472     CD =  0.14231   =>   CDf =  0.00139    CDp =  0.14092

 Side 1  free  transition at x/c =  0.0213   25
 Side 2  free  transition at x/c =  0.7187   42

  13   rms: 0.2115E-01   max: 0.1094E+00   D at   42  1
       a =  6.500      CL =  1.3973
      Cm = -0.1472     CD =  0.14230   =>   CDf =  0.00139    CDp =  0.14091

 Side 1  free  transition at x/c =  0.0213   25
 Side 2  free  transition at x/c =  0.7187   42

  14   rms: 0.2119E-01   max: 0.1096E+00   D at   42  1
       a =  6.500      CL =  1.3973
      Cm = -0.1473     CD =  0.14231   =>   CDf =  0.00139    CDp =  0.14092

 Side 1  free  transition at x/c =  0.0213   25
 Side 2  free  transition at x/c =  0.7187   42

  15   rms: 0.2116E-01   max: 0.1094E+00   D at   42  1
       a =  6.500      CL =  1.3973
      Cm = -0.1472     CD =  0.14231   =>   CDf =  0.00139    CDp =  0.14092
 VISCAL:  Convergence failed
 SINVRT: spline inversion failed. Input value returned.
 SINVRT: spline inversion failed. Input value returned.
 SINVRT: spline inversion failed. Input value returned.
 SINVRT: spline inversion failed. Input value returned.
 Calculating wake trajectory ...
 Calculating source influence matrix ...

 Solving BL system ...

 Side 1  free  transition at x/c =  0.0213   25
 Side 2  free  transition at x/c =  0.7187   42

   1   rms: 0.1469E+00   max: 0.5253E+00   D at   44  1   RLX: 0.245
       a =  7.000      CL =  1.3726
      Cm = -0.1468     CD =  0.14839   =>   CDf =  0.00140    CDp =  0.14699

 Side 1  free  transition at x/c =  0.0214   26
 Side 2  free  transition at x/c =  0.7188   42

   2   rms: 0.1512E+00   max: 0.9966E+00   D at   46  1
       a =  7.000      CL =  1.3839
      Cm = -0.1612     CD =  0.16680   =>   CDf =  0.00158    CDp =  0.16522

 Side 1  free  transition at x/c =  0.0221   26
 Side 2  free  transition at x/c =  0.7219   42

   3   rms: 0.1008E+00   max: 0.5925E+00   T at   26  1
       a =  7.000      CL =  1.4054
      Cm = -0.1516     CD =  0.14602   =>   CDf =  0.00111    CDp =  0.14491

 Side 1  free  transition at x/c =  0.0210   25
 Side 2  free  transition at x/c =  0.7268   42
 idif Ue xi dudx           1  0.12238443      6.10744953E-03   20.038549    
 Uenew xinew           2  2.16566902E-02  1.08075142E-03

   4   rms: 0.6002E+00   max: 0.1875E+01   D at   46  1   RLX: 0.337
       a =  7.000      CL =  1.3779
      Cm = -0.1736     CD =  0.17986   =>   CDf =  0.00163    CDp =  0.17823

 Side 1  free  transition at x/c =  0.0223   25
 Side 2  free  transition at x/c =  0.7162   43

   5   rms: 0.5325E+00   max: 0.1652E+01   T at   25  1   RLX: 0.379
       a =  7.000      CL =  1.3956
      Cm = -0.1278     CD =  0.12015   =>   CDf =  0.00249    CDp =  0.11765

 Side 1  free  transition at x/c =  0.0211   25
 Side 2  free  transition at x/c =  0.7281   42

   6   rms: 0.5664E+00   max: 0.1792E+01   D at   32  1   RLX: 0.364
       a =  7.000      CL =  1.4516
      Cm = -0.1082     CD =  0.11252   =>   CDf =  0.00209    CDp =  0.11043

 Side 1  free  transition at x/c =  0.0220   26
 Side 2  free  transition at x/c =  0.7335   43

   7   rms: 0.3679E+00   max: 0.1697E+01   D at   48  1   RLX: 0.326
       a =  7.000      CL =  1.4562
      Cm = -0.1140     CD =  0.12101   =>   CDf =  0.00270    CDp =  0.11831

 Side 1  free  transition at x/c =  0.0226   26
 Side 2  free  transition at x/c =  0.7382   43

   8   rms: 0.5136E+00   max: 0.3255E+01   T at   43  2   RLX: 0.461
       a =  7.000      CL =  1.3778
      Cm = -0.1472     CD =  0.15589   =>   CDf =  0.00164    CDp =  0.15425

 Side 1  free  transition at x/c =  0.0232   26
 Side 2  free  transition at x/c =  0.7207   42

   9   rms: 0.3160E+00   max: 0.1415E+01   T at   26  1   RLX: 0.413
       a =  7.000      CL =  1.4282
      Cm = -0.1351     CD =  0.13149   =>   CDf =  0.00119    CDp =  0.13029

 MRCHDU: Convergence failed at  49  side 1    Res =  0.1982E+01
 MRCHDU: Convergence failed at  50  side 1    Res =  0.1921E+01
 MRCHDU: Convergence failed at  51  side 1    Res =  0.2033E+01
 MRCHDU: Convergence failed at  52  side 1    Res =  0.2284E+01
 MRCHDU: Convergence failed at  53  side 1    Res =  0.2716E+01
 MRCHDU: Convergence failed at  54  side 1    Res =  0.3594E+01
 MRCHDU: Convergence failed at  55  side 1    Res =  0.5261E+01
 MRCHDU: Convergence failed at  56  side 1    Res =  0.9795E+01
 MRCHDU: Convergence failed at  57  side 1    Res =  0.3976E+02
 MRCHDU: Convergence failed at  58  side 1    Res =  0.7700E+01
 MRCHDU: Convergence failed at  59  side 1    Res =  0.5049E+01
 MRCHDU: Convergence failed at  60  side 1    Res =  0.3984E+01
 MRCHDU: Convergence failed at  61  side 1    Res =  0.3369E+01
 MRCHDU: Convergence failed at  62  side 1    Res =  0.2884E+01
 MRCHDU: Convergence failed at  63  side 1    Res =  0.2598E+01
 MRCHDU: Convergence failed at  64  side 1    Res =  0.2331E+01
 MRCHDU: Convergence failed at  65  side 1    Res =  0.2121E+01
 MRCHDU: Convergence failed at  66  side 1    Res =  0.1924E+01
 MRCHDU: Convergence failed at  67  side 1    Res =  0.1678E+01
 MRCHDU: Convergence failed at  68  side 1    Res =  0.1815E+01
 MRCHDU: Convergence failed at  69  side 1    Res =  0.2038E+01
 MRCHDU: Convergence failed at  70  side 1    Res =  0.2387E+01
 MRCHDU: Convergence failed at  71  side 1    Res =  0.7913E+01
 MRCHDU: Convergence failed at  72  side 1    Res =  0.2298E+02
 MRCHDU: Convergence failed at  73  side 1    Res =  0.8213E+01
 MRCHDU: Convergence failed at  74  side 1    Res =  0.1894E+01
 MRCHDU: Convergence failed at  75  side 1    Res =  0.1783E+01
 MRCHDU: Convergence failed at  76  side 1    Res =  0.3547E+01
 MRCHDU: Convergence failed at  77  side 1    Res =  0.2113E+01
 MRCHDU: Convergence failed at  78  side 1    Res =  0.5031E+00
 MRCHDU: Convergence failed at  80  side 1    Res =  0.4429E-02
 Side 1  free  transition at x/c =  0.0212   25
 Side 2  free  transition at x/c =  0.7302   42

  10   rms: 0.5766E+00   max: 0.3193E+01   D at   78  1   RLX: 0.279
       a =  7.000      CL =  1.6899
      Cm = -0.2314     CD =  0.13319   =>   CDf =  0.00134    CDp =  0.13184

 Side 1  free  transition at x/c =  0.0221   26
 Side 2  free  transition at x/c =  0.7308   42

  11   rms: 0.2430E+01   max: -.1411E+02   T at   42  2   RLX: 0.035
       a =  7.000      CL =  1.7086
      Cm = -0.2238     CD =  0.07234   =>   CDf =  0.00603    CDp =  0.06631

 Side 1  free  transition at x/c =  0.0229   26
 Side 2  free  transition at x/c =  0.7382   43

  12   rms: 0.6063E+01   max: 0.3921E+02   T at   26  1   RLX: 0.022
       a =  7.000      CL =  1.7112
      Cm = -0.2232     CD =  0.06629   =>   CDf =  0.00551    CDp =  0.06078

 MRCHDU: Convergence failed at  26  side 1    Res =  0.4093E+02
 MRCHDU: Convergence failed at  27  side 1    Res =  0.3228E+02
 MRCHDU: Convergence failed at  28  side 1    Res =  0.1243E+03
 MRCHDU: Convergence failed at  29  side 1    Res =  0.4555E+03
 MRCHDU: Convergence failed at  30  side 1    Res =  0.1363E+03
 MRCHDU: Convergence failed at  31  side 1    Res =  0.5106E+03
 MRCHDU: Convergence failed at  32  side 1    Res =  0.1623E+03
 MRCHDU: Convergence failed at  33  side 1    Res =  0.1322E+03
 MRCHDU: Convergence failed at  34  side 1    Res =  0.6360E+02
 MRCHDU: Convergence failed at  35  side 1    Res =  0.7438E+02
 MRCHDU: Convergence failed at  36  side 1    Res =  0.6595E+02
 MRCHDU: Convergence failed at  37  side 1    Res =  0.6102E+02
 MRCHDU: Convergence failed at  38  side 1    Res =  0.8323E+02
 MRCHDU: Convergence failed at  39  side 1    Res =  0.3570E+02
 MRCHDU: Convergence failed at  40  side 1    Res =  0.3818E+02
 MRCHDU: Convergence failed at  41  side 1    Res =  0.4115E+02
 MRCHDU: Convergence failed at  42  side 1    Res =  0.3787E+02
 MRCHDU: Convergence failed at  43  side 1    Res =  0.4020E+02
 MRCHDU: Convergence failed at  44  side 1    Res =  0.8119E+02
 MRCHDU: Convergence failed at  45  side 1    Res =  0.4027E+02
 MRCHDU: Convergence failed at  46  side 1    Res =  0.4112E+02
 MRCHDU: Convergence failed at  47  side 1    Res =  0.8039E+02
 MRCHDU: Convergence failed at  48  side 1    Res =  0.7630E+02
 MRCHDU: Convergence failed at  49  side 1    Res =  0.7594E+02
 MRCHDU: Convergence failed at  50  side 1    Res =  0.7555E+02
 MRCHDU: Convergence failed at  51  side 1    Res =  0.7485E+02
 MRCHDU: Convergence failed at  52  side 1    Res =  0.7443E+02
 MRCHDU: Convergence failed at  53  side 1    Res =  0.7368E+02
 MRCHDU: Convergence failed at  54  side 1    Res =  0.7298E+02
 MRCHDU: Convergence failed at  55  side 1    Res =  0.7234E+02
 MRCHDU: Convergence failed at  56  side 1    Res =  0.4133E+02
 MRCHDU: Convergence failed at  57  side 1    Res =  0.4176E+02
 MRCHDU: Convergence failed at  58  side 1    Res =  0.4737E+02
 MRCHDU: Convergence failed at  59  side 1    Res =  0.4251E+02
 MRCHDU: Convergence failed at  60  side 1    Res =  0.4494E+02
 MRCHDU: Convergence failed at  61  side 1    Res =  0.4329E+02
 MRCHDU: Convergence failed at  62  side 1    Res =  0.4368E+02
 MRCHDU: Convergence failed at  63  side 1    Res =  0.4404E+02
 MRCHDU: Convergence failed at  64  side 1    Res =  0.4436E+02
 MRCHDU: Convergence failed at  65  side 1    Res =  0.4466E+02
 MRCHDU: Convergence failed at  66  side 1    Res =  0.4489E+02
 MRCHDU: Convergence failed at  67  side 1    Res =  0.4504E+02
 MRCHDU: Convergence failed at  68  side 1    Res =  0.4510E+02
 MRCHDU: Convergence failed at  69  side 1    Res =  0.4500E+02
 MRCHDU: Convergence failed at  70  side 1    Res =  0.4464E+02
 MRCHDU: Convergence failed at  71  side 1    Res =  0.4357E+02
 MRCHDU: Convergence failed at  72  side 1    Res =  0.2796E+04
 MRCHDU: Convergence failed at  73  side 1    Res =  0.5355E+03
 MRCHDU: Convergence failed at  74  side 1    Res =  0.7529E+02
 MRCHDU: Convergence failed at  75  side 1    Res =  0.7254E+02
 MRCHDU: Convergence failed at  76  side 1    Res =  0.4987E+02
 MRCHDU: Convergence failed at  77  side 1    Res =  0.5307E+02
 MRCHDU: Convergence failed at  78  side 1    Res =  0.3478E+05
 MRCHDU: Convergence failed at  79  side 1    Res =  0.1468E+04
 MRCHDU: Convergence failed at  80  side 1    Res =  0.1565E+03
 MRCHDU: Convergence failed at  81  side 1    Res =  0.1328E+04
 MRCHDU: Convergence failed at  82  side 1    Res =  0.1427E+03
 MRCHDU: Convergence failed at  83  side 1    Res =  0.1427E+03
 MRCHDU: Convergence failed at  84  side 1    Res =  0.1462E+03
 MRCHDU: Convergence failed at  85  side 1    Res =  0.2598E+04
 MRCHDU: Convergence failed at  74  side 2    Res =  0.7975E+00
 MRCHDU: Convergence failed at  75  side 2    Res =  0.1015E+01
 MRCHDU: Convergence failed at  76  side 2    Res =  0.1131E+01
 MRCHDU: Convergence failed at  77  side 2    Res =  0.4631E+00
 MRCHDU: Convergence failed at  78  side 2    Res =  0.1601E+01
 MRCHDU: Convergence failed at  79  side 2    Res =  0.3998E+00
 Side 1  free  transition at x/c =  0.0208   25
 Side 2  free  transition at x/c =  0.7399   43

  13   rms: 0.3035E+01   max: 0.1435E+02   D at   72  2   RLX: 0.105
       a =  7.000      CL =  5.1788
      Cm = -1.2122     CD =  0.02792   =>   CDf = -0.00022    CDp =  0.02814

 MRCHDU: Convergence failed at  72  side 2    Res =  0.4941E+03
 Side 1  free  transition at x/c =  0.0216   26
 Side 2  free  transition at x/c =  0.7359   43

  14   rms: 0.1086E+01   max: 0.5136E+01   D at   73  2   RLX: 0.146
       a =  7.000      CL =  3.6578
      Cm = -0.7854     CD =  0.18300   =>   CDf =  0.00091    CDp =  0.18209

 MRCHDU: Convergence failed at  76  side 2    Res =  0.8147E+00
 MRCHDU: Convergence failed at  77  side 2    Res =  0.1634E+01
 Side 1  free  transition at x/c =  0.0211   25
 Side 2  free  transition at x/c =  0.7410   43

  15   rms: 0.9274E+00   max: -.2507E+01   T at   43  2   RLX: 0.199
       a =  7.000      CL =  3.2780
      Cm = -0.6917     CD =  0.19639   =>   CDf =  0.00095    CDp =  0.19544
 VISCAL:  Convergence failed
 SINVRT: spline inversion failed. Input value returned.
 SINVRT: spline inversion failed. Input value returned.
 SINVRT: spline inversion failed. Input value returned.
 SINVRT: spline inversion failed. Input value returned.
 Calculating wake trajectory ...
 Calculating source influence matrix ...

 Solving BL system ...

 Side 1  free  transition at x/c =  0.0214   25
 Side 2  free  transition at x/c =  0.7481   43

   1   rms: 0.1084E+01   max: -.6479E+01   T at   43  2   RLX: 0.077
       a =  7.500      CL =  3.0856
      Cm = -0.6437     CD =  0.28190   =>   CDf =  0.00112    CDp =  0.28079

 Side 1  free  transition at x/c =  0.0215   26
 Side 2  free  transition at x/c =  0.7481   43

   2   rms: 0.1371E+01   max: 0.1004E+02   T at   26  1   RLX: 0.135
       a =  7.500      CL =  2.8328
      Cm = -0.5686     CD =  0.24288   =>   CDf =  0.00117    CDp =  0.24171

 MRCHDU: Convergence failed at  26  side 1    Res =  0.6672E+01
 MRCHDU: Convergence failed at  27  side 1    Res =  0.6973E+01
 MRCHDU: Convergence failed at  28  side 1    Res =  0.1869E+02
 MRCHDU: Convergence failed at  29  side 1    Res =  0.1248E+02
 MRCHDU: Convergence failed at  30  side 1    Res =  0.4951E+01
 MRCHDU: Convergence failed at  31  side 1    Res =  0.1782E+02
 MRCHDU: Convergence failed at  32  side 1    Res =  0.7067E+01
 MRCHDU: Convergence failed at  33  side 1    Res =  0.4799E+01
 Side 1  free  transition at x/c =  0.0214   25
 Side 2  free  transition at x/c =  0.7476   43
 idif Ue xi dudx           1  0.13567702      6.51228428E-03   20.834015    
 Uenew xinew           2  3.09507251E-02  1.48558617E-03

   3   rms: 0.1113E+02   max: 0.2076E+01   U at   81  2   RLX: 0.013
       a =  7.500      CL =  3.5412
      Cm = -0.7104     CD =  0.34574   =>   CDf =  0.00150    CDp =  0.34424

 Side 1  free  transition at x/c =  0.0235   25
 Side 2  free  transition at x/c =  0.7459   44

   4   rms: 0.8177E+00   max: -.3631E+01   D at   82  2   RLX: 0.138
       a =  7.500      CL =  2.8478
      Cm = -0.5761     CD =  0.24553   =>   CDf =  0.00127    CDp =  0.24426

 Side 1  free  transition at x/c =  0.0237   25
 Side 2  free  transition at x/c =  0.7417   44

   5   rms: 0.7255E+00   max: -.2857E+01   D at   82  2   RLX: 0.175
       a =  7.500      CL =  2.5781
      Cm = -0.5149     CD =  0.22716   =>   CDf =  0.00128    CDp =  0.22588

 MRCHDU: Convergence failed at  82  side 2    Res =  0.8449E-01
 Side 1  free  transition at x/c =  0.0242   25
 Side 2  free  transition at x/c =  0.7405   44
 idif Ue xi dudx           1  0.11212465      5.21183014E-03   21.513489    
 Uenew xinew           2  1.64929926E-02  7.66634941E-04

   6   rms: 0.6241E+00   max: -.2878E+01   D at   82  2   RLX: 0.174
       a =  7.500      CL =  2.3481
      Cm = -0.4615     CD =  0.21857   =>   CDf =  0.00167    CDp =  0.21690

 MRCHDU: Convergence failed at  83  side 2    Res =  0.2676E+00
 Side 1  free  transition at x/c =  0.0249   24
 Side 2  free  transition at x/c =  0.7381   45

   7   rms: 0.9149E+00   max: -.1230E+01   T at   82  2   RLX: 0.317
       a =  7.500      CL =  1.7649
      Cm = -0.3365     CD =  0.46862   =>   CDf =  0.00137    CDp =  0.46724

 Side 1  free  transition at x/c =  0.0266   25
 Side 2  free  transition at x/c =  0.7260   44

   8   rms: 0.7280E+00   max: 0.2551E+01   T at   25  1   RLX: 0.299
       a =  7.500      CL =  1.4755
      Cm = -0.2515     CD =  0.44543   =>   CDf =  0.00131    CDp =  0.44412

 MRCHDU: Convergence failed at  25  side 1    Res =  0.5443E+01
 MRCHDU: Convergence failed at  26  side 1    Res =  0.1314E+02
 MRCHDU: Convergence failed at  27  side 1    Res =  0.2462E+02
 MRCHDU: Convergence failed at  28  side 1    Res =  0.3650E+02
 MRCHDU: Convergence failed at  29  side 1    Res =  0.1014E+02
 MRCHDU: Convergence failed at  30  side 1    Res =  0.6353E+02
 MRCHDU: Convergence failed at  31  side 1    Res =  0.1041E+02
 MRCHDU: Convergence failed at  32  side 1    Res =  0.1804E+02
 MRCHDU: Convergence failed at  33  side 1    Res =  0.1542E+02
 MRCHDU: Convergence failed at  34  side 1    Res =  0.4685E+02
 MRCHDU: Convergence failed at  35  side 1    Res =  0.3291E+02
 MRCHDU: Convergence failed at  36  side 1    Res =  0.1174E+02
 MRCHDU: Convergence failed at  37  side 1    Res =  0.1875E+02
 MRCHDU: Convergence failed at  38  side 1    Res =  0.3089E+02
 MRCHDU: Convergence failed at  39  side 1    Res =  0.3327E+03
 MRCHDU: Convergence failed at  40  side 1    Res =  0.4231E+02
 MRCHDU: Convergence failed at  41  side 1    Res =  0.2274E+02
 MRCHDU: Convergence failed at  42  side 1    Res =  0.1298E+02
 MRCHDU: Convergence failed at  43  side 1    Res =  0.1643E+02
 MRCHDU: Convergence failed at  44  side 1    Res =  0.1905E+02
 MRCHDU: Convergence failed at  45  side 1    Res =  0.2581E+02
 MRCHDU: Convergence failed at  46  side 1    Res =  0.3184E+02
 MRCHDU: Convergence failed at  47  side 1    Res =  0.5413E+02
 MRCHDU: Convergence failed at  48  side 1    Res =  0.3476E+03
 MRCHDU: Convergence failed at  49  side 1    Res =  0.7381E+02
 MRCHDU: Convergence failed at  50  side 1    Res =  0.4957E+02
 MRCHDU: Convergence failed at  51  side 1    Res =  0.3032E+02
 MRCHDU: Convergence failed at  52  side 1    Res =  0.2328E+02
 MRCHDU: Convergence failed at  53  side 1    Res =  0.1841E+02
 MRCHDU: Convergence failed at  54  side 1    Res =  0.1398E+02
 MRCHDU: Convergence failed at  55  side 1    Res =  0.1588E+02
 MRCHDU: Convergence failed at  56  side 1    Res =  0.1829E+02
 MRCHDU: Convergence failed at  57  side 1    Res =  0.2025E+02
 MRCHDU: Convergence failed at  58  side 1    Res =  0.2415E+02
 MRCHDU: Convergence failed at  59  side 1    Res =  0.3246E+02
 MRCHDU: Convergence failed at  60  side 1    Res =  0.4642E+02
 MRCHDU: Convergence failed at  61  side 1    Res =  0.9706E+02
 MRCHDU: Convergence failed at  62  side 1    Res =  0.1200E+03
 MRCHDU: Convergence failed at  63  side 1    Res =  0.5267E+02
 MRCHDU: Convergence failed at  64  side 1    Res =  0.3164E+02
 MRCHDU: Convergence failed at  65  side 1    Res =  0.2375E+02
 MRCHDU: Convergence failed at  66  side 1    Res =  0.1801E+02
 MRCHDU: Convergence failed at  67  side 1    Res =  0.1686E+02
 MRCHDU: Convergence failed at  68  side 1    Res =  0.2182E+02
 MRCHDU: Convergence failed at  69  side 1    Res =  0.2862E+02
 MRCHDU: Convergence failed at  70  side 1    Res =  0.6521E+02
 MRCHDU: Convergence failed at  71  side 1    Res =  0.6413E+02
 MRCHDU: Convergence failed at  72  side 1    Res =  0.1323E+03
 MRCHDU: Convergence failed at  73  side 1    Res =  0.3431E+02
 MRCHDU: Convergence failed at  74  side 1    Res =  0.1906E+02
 MRCHDU: Convergence failed at  75  side 1    Res =  0.1852E+02
 MRCHDU: Convergence failed at  76  side 1    Res =  0.3256E+02
 MRCHDU: Convergence failed at  77  side 1    Res =  0.6495E+02
 MRCHDU: Convergence failed at  78  side 1    Res =  0.7324E+03
 MRCHDU: Convergence failed at  79  side 1    Res =  0.3897E+02
 MRCHDU: Convergence failed at  80  side 1    Res =  0.2076E+02
 MRCHDU: Convergence failed at  81  side 1    Res =  0.1624E+02
 MRCHDU: Convergence failed at  82  side 1    Res =  0.1986E+02
 MRCHDU: Convergence failed at  83  side 1    Res =  0.2424E+02
 Side 1  free  transition at x/c =  0.0268   25
 Side 2  free  transition at x/c =  0.7301   44

   9   rms: 0.4290E+01   max: 0.1828E+02   D at   83  1   RLX: 0.082
       a =  7.500      CL =  3.6302
      Cm = -0.8308     CD =  0.22179   =>   CDf =  0.00017    CDp =  0.22162

 MRCHDU: Convergence failed at  39  side 1    Res =  0.9807E-04
 Side 1  free  transition at x/c =  0.0255   25
 Side 2  free  transition at x/c =  0.7320   44

  10   rms: 0.1056E+01   max: 0.4294E+01   D at   39  1   RLX: 0.231
       a =  7.500      CL =  2.3761
      Cm = -0.4346     CD =  0.32634   =>   CDf =  0.00167    CDp =  0.32467

 Side 1  free  transition at x/c =  0.0271   26
 Side 2  free  transition at x/c =  0.7346   44

  11   rms: 0.7063E+00   max: 0.1404E+01   T at   44  2   RLX: 0.365
       a =  7.500      CL =  1.8388
      Cm = -0.3138     CD =  0.25627   =>   CDf =  0.00111    CDp =  0.25516

 Side 1  free  transition at x/c =  0.0260   26
 Side 2  free  transition at x/c =  0.7256   43

  12   rms: 0.2078E+01   max: -.2278E+02   T at   26  1   RLX: 0.022
       a =  7.500      CL =  1.8710
      Cm = -0.3201     CD =  0.29152   =>   CDf =  0.00103    CDp =  0.29048

 Side 1  free  transition at x/c =  0.0272   26
 Side 2  free  transition at x/c =  0.7239   43

  13   rms: 0.6376E+00   max: 0.4616E+01   T at   26  1   RLX: 0.325
       a =  7.500      CL =  1.6441
      Cm = -0.2667     CD =  0.21888   =>   CDf =  0.00101    CDp =  0.21787

 MRCHDU: Convergence failed at  26  side 1    Res =  0.9019E+01
 MRCHDU: Convergence failed at  27  side 1    Res =  0.1840E+03
 MRCHDU: Convergence failed at  28  side 1    Res =  0.6667E+02
 MRCHDU: Convergence failed at  29  side 1    Res =  0.1128E+03
 MRCHDU: Convergence failed at  30  side 1    Res =  0.5638E+02
 MRCHDU: Convergence failed at  31  side 1    Res =  0.3903E+02
 MRCHDU: Convergence failed at  32  side 1    Res =  0.2943E+02
 MRCHDU: Convergence failed at  33  side 1    Res =  0.2524E+02
 MRCHDU: Convergence failed at  34  side 1    Res =  0.2386E+02
 MRCHDU: Convergence failed at  35  side 1    Res =  0.3465E+02
 MRCHDU: Convergence failed at  36  side 1    Res =  0.1035E+03
 MRCHDU: Convergence failed at  37  side 1    Res =  0.2873E+02
 MRCHDU: Convergence failed at  38  side 1    Res =  0.3476E+02
 MRCHDU: Convergence failed at  39  side 1    Res =  0.1149E+03
 MRCHDU: Convergence failed at  40  side 1    Res =  0.2694E+02
 MRCHDU: Convergence failed at  41  side 1    Res =  0.2503E+02
 MRCHDU: Convergence failed at  42  side 1    Res =  0.3275E+02
 MRCHDU: Convergence failed at  43  side 1    Res =  0.5444E+02
 MRCHDU: Convergence failed at  44  side 1    Res =  0.2075E+03
 MRCHDU: Convergence failed at  45  side 1    Res =  0.1158E+03
 MRCHDU: Convergence failed at  46  side 1    Res =  0.4432E+02
 MRCHDU: Convergence failed at  47  side 1    Res =  0.4731E+02
 MRCHDU: Convergence failed at  48  side 1    Res =  0.5840E+02
 MRCHDU: Convergence failed at  49  side 1    Res =  0.8508E+02
 MRCHDU: Convergence failed at  50  side 1    Res =  0.2413E+03
 MRCHDU: Convergence failed at  51  side 1    Res =  0.3627E+03
 MRCHDU: Convergence failed at  52  side 1    Res =  0.6770E+02
 MRCHDU: Convergence failed at  53  side 1    Res =  0.1703E+04
 MRCHDU: Convergence failed at  54  side 1    Res =  0.1772E+04
 MRCHDU: Convergence failed at  55  side 1    Res =  0.1328E+03
 MRCHDU: Convergence failed at  56  side 1    Res =  0.4550E+02
 MRCHDU: Convergence failed at  57  side 1    Res =  0.6400E+02
 MRCHDU: Convergence failed at  58  side 1    Res =  0.3126E+03
 MRCHDU: Convergence failed at  59  side 1    Res =  0.3705E+03
 MRCHDU: Convergence failed at  60  side 1    Res =  0.6363E+02
 MRCHDU: Convergence failed at  61  side 1    Res =  0.6866E+02
 MRCHDU: Convergence failed at  62  side 1    Res =  0.7473E+02
 MRCHDU: Convergence failed at  63  side 1    Res =  0.9144E+02
 MRCHDU: Convergence failed at  64  side 1    Res =  0.1075E+03
 MRCHDU: Convergence failed at  65  side 1    Res =  0.7170E+03
 MRCHDU: Convergence failed at  66  side 1    Res =  0.6695E+02
 MRCHDU: Convergence failed at  67  side 1    Res =  0.2198E+03
 MRCHDU: Convergence failed at  68  side 1    Res =  0.2118E+03
 MRCHDU: Convergence failed at  69  side 1    Res =  0.8279E+02
 MRCHDU: Convergence failed at  70  side 1    Res =  0.5518E+02
 MRCHDU: Convergence failed at  71  side 1    Res =  0.7642E+02
 MRCHDU: Convergence failed at  72  side 1    Res =  0.8083E+02
 MRCHDU: Convergence failed at  73  side 1    Res =  0.8667E+02
 MRCHDU: Convergence failed at  74  side 1    Res =  0.4848E+02
 MRCHDU: Convergence failed at  75  side 1    Res =  0.4990E+02
 MRCHDU: Convergence failed at  76  side 1    Res =  0.6802E+02
 MRCHDU: Convergence failed at  77  side 1    Res =  0.7913E+02
 MRCHDU: Convergence failed at  78  side 1    Res =  0.5702E+02
 MRCHDU: Convergence failed at  79  side 1    Res =  0.1212E+03
 MRCHDU: Convergence failed at  80  side 1    Res =  0.1546E+03
 MRCHDU: Convergence failed at  81  side 1    Res =  0.1702E+03
 MRCHDU: Convergence failed at  82  side 1    Res =  0.1626E+03
 MRCHDU: Convergence failed at  83  side 1    Res =  0.1440E+03
 MRCHDU: Convergence failed at  84  side 1    Res =  0.6801E+02
 Side 1  free  transition at x/c =  0.0254   25
 Side 2  free  transition at x/c =  0.7196   43

  14   rms: 0.2854E+01   max: 0.1403E+02   D at   84  1   RLX: 0.107
       a =  7.500      CL =  3.5903
      Cm = -0.8386     CD =  0.09998   =>   CDf =  0.00026    CDp =  0.09972

 Side 1  free  transition at x/c =  0.0261   26
 Side 2  free  transition at x/c =  0.7154   43

  15   rms: 0.1108E+01   max: 0.6216E+01   T at   26  1   RLX: 0.153
       a =  7.500      CL =  2.3537
      Cm = -0.4957     CD =  0.23602   =>   CDf =  0.00100    CDp =  0.23502
 VISCAL:  Convergence failed
 SINVRT: spline inversion failed. Input value returned.
 SINVRT: spline inversion failed. Input value returned.
 SINVRT: spline inversion failed. Input value returned.
 SINVRT: spline inversion failed. Input value returned.
 Calculating wake trajectory ...
 Calculating source influence matrix ...

 Solving BL system ...

 Side 1  free  transition at x/c =  0.0259   25
 Side 2  free  transition at x/c =  0.7154   43
 idif Ue xi dudx           1  0.11148935      5.52427769E-03   20.181705    
 Uenew xinew           2  2.17777248E-02  1.07908249E-03

   1   rms: 0.8423E+00   max: -.1471E+01   T at   82  2   RLX: 0.185
       a =  8.000      CL =  2.0259
      Cm = -0.4159     CD =  0.26761   =>   CDf =  0.00131    CDp =  0.26631

 Side 1  free  transition at x/c =  0.0267   25
 Side 2  free  transition at x/c =  0.7103   43

   2   rms: 0.1107E+01   max: 0.5599E+01   T at   44  2   RLX: 0.101
       a =  8.000      CL =  1.8685
      Cm = -0.3800     CD =  0.33648   =>   CDf =  0.00106    CDp =  0.33541

 Side 1  free  transition at x/c =  0.0276   25
 Side 2  free  transition at x/c =  0.7111   43
 idif Ue xi dudx           1  0.13610908      5.94270229E-03   22.903568    
 Uenew xinew           2  4.53260094E-02  1.97899342E-03

   3   rms: 0.1100E+01   max: 0.3467E+01   D at   25  1   RLX: 0.187
       a =  8.000      CL =  1.6232
      Cm = -0.3360     CD =  0.35308   =>   CDf =  0.00137    CDp =  0.35171

 Side 1  free  transition at x/c =  0.0337   25
 Side 2  free  transition at x/c =  0.7049   44

   4   rms: 0.2966E+01   max: -.3624E+02   T at   25  1   RLX: 0.014
       a =  8.000      CL =  1.4812
      Cm = -0.3041     CD =  0.41245   =>   CDf =  0.00120    CDp =  0.41125

 Side 1  free  transition at x/c =  0.0373   25
 Side 2  free  transition at x/c =  0.7023   44

   5   rms: 0.5014E+00   max: 0.2492E+01   T at   26  1   RLX: 0.413
       a =  8.000      CL =  1.2080
      Cm = -0.2374     CD =  0.30999   =>   CDf =  0.00121    CDp =  0.30878

 Side 1  free  transition at x/c =  0.0369   25
 Side 2  free  transition at x/c =  0.7107   44

   6   rms: 0.4019E+00   max: 0.1905E+01   T at   48  2   RLX: 0.336
       a =  8.000      CL =  1.1084
      Cm = -0.2070     CD =  0.37730   =>   CDf =  0.00124    CDp =  0.37606

 Side 1  free  transition at x/c =  0.0366   25
 Side 2  free  transition at x/c =  0.7198   45
 idif Ue xi dudx           1  0.10556143      4.03416157E-03   26.166882    
 Uenew xinew           2  1.23182554E-02  4.70757484E-04

   7   rms: 0.4143E+00   max: 0.2361E+01   D at   47  2   RLX: 0.635
       a =  8.000      CL =  0.9617
      Cm = -0.1713     CD =  0.25831   =>   CDf =  0.00153    CDp =  0.25678

 Side 1  free  transition at x/c =  0.0374   24
 Side 2  free  transition at x/c =  0.7061   45

   8   rms: 0.2256E+00   max: 0.1380E+01   D at   49  2   RLX: 0.860
       a =  8.000      CL =  0.9187
      Cm = -0.1504     CD =  0.19816   =>   CDf =  0.00112    CDp =  0.19704

 TRCHEK2: N2 convergence failed.
 x:  0.13699  0.15157  0.15241  N:  8.813  9.000  9.000  Nx:  18.950   dN:-0.155E+00
 TRCHEK2: N2 convergence failed.
 x:  0.13699  0.14909  0.15241  N:  8.813  9.000  9.036  Nx:  22.627   dN:-0.130E+00
 TRCHEK2: N2 convergence failed.
 x:  0.13699  0.15196  0.15241  N:  8.813  9.000  9.016  Nx:  14.399   dN: 0.422E-01
 TRCHEK2: N2 convergence failed.
 x:  0.13699  0.15241  0.15241  N:  8.813  9.000  9.040  Nx:  14.721   dN: 0.405E-01
 TRCHEK2: N2 convergence failed.
 x:  0.13699  0.15197  0.15241  N:  8.813  9.000  9.015  Nx:  14.350   dN: 0.287E-01
 TRCHEK2: N2 convergence failed.
 x:  0.13699  0.15079  0.15241  N:  8.813  9.000  9.010  Nx:  16.542   dN:-0.330E-01
 TRCHEK2: N2 convergence failed.
 x:  0.13699  0.15049  0.15241  N:  8.813  9.000  9.014  Nx:  15.534   dN:-0.172E-01
 TRCHEK2: N2 convergence failed.
 x:  0.13699  0.15054  0.15241  N:  8.813  9.000  9.038  Nx:  14.519   dN: 0.690E-01
 TRCHEK2: N2 convergence failed.
 x:  0.13699  0.15049  0.15241  N:  8.813  9.000  9.014  Nx:  14.783   dN:-0.301E-01
 TRCHEK2: N2 convergence failed.
 x:  0.13699  0.15061  0.15241  N:  8.813  9.000  9.034  Nx:  14.369   dN: 0.954E-02
 TRCHEK2: N2 convergence failed.
 x:  0.13699  0.14960  0.15241  N:  8.813  9.000  9.031  Nx:  15.978   dN:-0.111E-01
 TRCHEK2: N2 convergence failed.
 x:  0.13699  0.14986  0.15241  N:  8.813  9.000  9.031  Nx:  14.835   dN:-0.580E-02
 TRCHEK2: N2 convergence failed.
 x:  0.13699  0.14942  0.15241  N:  8.813  9.000  9.035  Nx:  16.171   dN:-0.989E-02
 TRCHEK2: N2 convergence failed.
 x:  0.13699  0.15041  0.15241  N:  8.813  9.000  9.040  Nx:  14.514   dN: 0.276E-01
 TRCHEK2: N2 convergence failed.
 x:  0.13699  0.15051  0.15241  N:  8.813  9.000  9.014  Nx:  14.864   dN:-0.750E-01
 TRCHEK2: N2 convergence failed.
 x:  0.13699  0.14954  0.15241  N:  8.813  9.000  9.030  Nx:  16.112   dN:-0.126E-01
 TRCHEK2: N2 convergence failed.
 x:  0.13699  0.14968  0.15241  N:  8.813  9.000  9.035  Nx:  15.168   dN:-0.522E-02
 TRCHEK2: N2 convergence failed.
 x:  0.13699  0.15074  0.15241  N:  8.813  9.000  9.034  Nx:  14.349   dN: 0.112E-01
 TRCHEK2: N2 convergence failed.
 x:  0.13699  0.15013  0.15241  N:  8.813  9.000  9.045  Nx:  14.654   dN: 0.896E-01
 TRCHEK2: N2 convergence failed.
 x:  0.13699  0.15050  0.15241  N:  8.813  9.000  9.014  Nx:  14.873   dN:-0.622E-01
 TRCHEK2: N2 convergence failed.
 x:  0.13699  0.15107  0.15241  N:  8.813  9.000  9.029  Nx:  14.349   dN: 0.162E-01
 MRCHDU: Convergence failed at  32  side 1    Res =  0.2601E+02
 MRCHDU: Convergence failed at  33  side 1    Res =  0.1420E+03
 MRCHDU: Convergence failed at  34  side 1    Res =  0.1025E+03
 MRCHDU: Convergence failed at  35  side 1    Res =  0.6964E+02
 MRCHDU: Convergence failed at  36  side 1    Res =  0.6118E+02
 MRCHDU: Convergence failed at  37  side 1    Res =  0.4741E+02
 MRCHDU: Convergence failed at  38  side 1    Res =  0.4330E+02
 MRCHDU: Convergence failed at  39  side 1    Res =  0.3557E+02
 MRCHDU: Convergence failed at  40  side 1    Res =  0.2550E+02
 MRCHDU: Convergence failed at  41  side 1    Res =  0.2960E+02
 MRCHDU: Convergence failed at  42  side 1    Res =  0.3364E+02
 MRCHDU: Convergence failed at  43  side 1    Res =  0.3710E+02
 MRCHDU: Convergence failed at  44  side 1    Res =  0.4416E+02
 MRCHDU: Convergence failed at  45  side 1    Res =  0.5310E+02
 MRCHDU: Convergence failed at  46  side 1    Res =  0.5944E+02
 MRCHDU: Convergence failed at  47  side 1    Res =  0.6946E+02
 MRCHDU: Convergence failed at  48  side 1    Res =  0.8275E+02
 MRCHDU: Convergence failed at  49  side 1    Res =  0.8727E+02
 MRCHDU: Convergence failed at  50  side 1    Res =  0.1264E+03
 MRCHDU: Convergence failed at  51  side 1    Res =  0.1857E+03
[...]
 MRCHDU: Convergence failed at  46  side 1    Res =  0.6243E+02
 MRCHDU: Convergence failed at  47  side 1    Res =  0.8710E+02
 MRCHDU: Convergence failed at  48  side 1    Res =  0.8321E+02
 MRCHDU: Convergence failed at  49  side 1    Res =  0.6028E+02
 MRCHDU: Convergence failed at  50  side 1    Res =  0.6631E+02
 MRCHDU: Convergence failed at  51  side 1    Res =  0.6989E+02
 MRCHDU: Convergence failed at  52  side 1    Res =  0.7841E+02
 MRCHDU: Convergence failed at  53  side 1    Res =  0.8176E+02
 MRCHDU: Convergence failed at  54  side 1    Res =  0.7260E+02
 MRCHDU: Convergence failed at  55  side 1    Res =  0.9587E+02
 MRCHDU: Convergence failed at  56  side 1    Res =  0.9662E+02
 MRCHDU: Convergence failed at  57  side 1    Res =  0.1021E+03
 MRCHDU: Convergence failed at  58  side 1    Res =  0.1071E+03
 MRCHDU: Convergence failed at  59  side 1    Res =  0.1130E+03
 MRCHDU: Convergence failed at  60  side 1    Res =  0.1204E+03
 MRCHDU: Convergence failed at  61  side 1    Res =  0.1057E+03
 MRCHDU: Convergence failed at  62  side 1    Res =  0.1115E+03
 MRCHDU: Convergence failed at  63  side 1    Res =  0.1180E+03
 MRCHDU: Convergence failed at  64  side 1    Res =  0.1223E+03
 MRCHDU: Convergence failed at  65  side 1    Res =  0.8161E+02
 MRCHDU: Convergence failed at  66  side 1    Res =  0.7702E+02
 MRCHDU: Convergence failed at  67  side 1    Res =  0.9159E+02
 MRCHDU: Convergence failed at  68  side 1    Res =  0.1063E+03
 MRCHDU: Convergence failed at  69  side 1    Res =  0.1049E+03
 MRCHDU: Convergence failed at  70  side 1    Res =  0.1112E+03
 MRCHDU: Convergence failed at  71  side 1    Res =  0.2435E+03
 MRCHDU: Convergence failed at  72  side 1    Res =  0.3034E+03
 MRCHDU: Convergence failed at  73  side 1    Res =  0.6868E+03
 MRCHDU: Convergence failed at  74  side 1    Res =  0.2233E+03
 MRCHDU: Convergence failed at  75  side 1    Res =  0.1310E+03
 MRCHDU: Convergence failed at  76  side 1    Res =  0.9082E+02
 MRCHDU: Convergence failed at  77  side 1    Res =  0.8043E+02
 MRCHDU: Convergence failed at  78  side 1    Res =  0.1042E+03
 MRCHDU: Convergence failed at  79  side 1    Res =  0.1240E+03
 MRCHDU: Convergence failed at  80  side 1    Res =  0.1159E+03
 MRCHDU: Convergence failed at  81  side 1    Res =  0.1255E+03
 MRCHDU: Convergence failed at  82  side 1    Res =  0.1393E+03
 MRCHDU: Convergence failed at  83  side 1    Res =  0.1584E+03
 MRCHDU: Convergence failed at  84  side 1    Res =  0.2352E+03
 MRCHDU: Convergence failed at  78  side 2    Res =  0.1028E+02
 MRCHDU: Convergence failed at  79  side 2    Res =  0.4386E+02
 MRCHDU: Convergence failed at  80  side 2    Res =  0.4614E+01
 Side 1  free  transition at x/c =  0.0286   26
 Side 2  free  transition at x/c =  0.7086   42

   4   rms: 0.2871E+01   max: -.4065E+02   T at   26  1   RLX: 0.012
       a =  7.500      CL =  3.3349
      Cm = -0.7774     CD =  0.05098   =>   CDf =  0.00084    CDp =  0.05014

 Side 1  free  transition at x/c =  0.0304   26
 Side 2  free  transition at x/c =  0.7074   42
 idif Ue xi dudx           1  0.11189329      5.35547733E-03   20.893244    
 Uenew xinew           2  1.90187469E-02  9.10282135E-04

   5   rms: 0.8159E+00   max: -.3461E+01   T at   42  2   RLX: 0.144
       a =  7.500      CL =  2.5932
      Cm = -0.5558     CD =  0.21320   =>   CDf =  0.00136    CDp =  0.21185

 Side 1  free  transition at x/c =  0.0304   25
 Side 2  free  transition at x/c =  0.7149   44

   6   rms: 0.6623E+00   max: 0.1352E+01   D at   78  2   RLX: 0.375
       a =  7.500      CL =  2.0724
      Cm = -0.4337     CD =  0.19011   =>   CDf =  0.00121    CDp =  0.18890

 Side 1  free  transition at x/c =  0.0309   25
 Side 2  free  transition at x/c =  0.7143   44
 idif Ue xi dudx           1  0.11124298      4.68027592E-03   23.768467    
 Uenew xinew           2  1.70316994E-02  7.16567039E-04

   7   rms: 0.4507E+00   max: -.1766E+01   D at   83  2   RLX: 0.283
       a =  7.500      CL =  1.8409
      Cm = -0.3733     CD =  0.21462   =>   CDf =  0.00155    CDp =  0.21307

 Side 1  free  transition at x/c =  0.0312   24
 Side 2  free  transition at x/c =  0.7131   45

   8   rms: 0.3750E+00   max: -.1893E+01   T at   45  2   RLX: 0.264
       a =  7.500      CL =  1.6811
      Cm = -0.3289     CD =  0.22279   =>   CDf =  0.00135    CDp =  0.22144

 Side 1  free  transition at x/c =  0.0313   24
 Side 2  free  transition at x/c =  0.7152   45

   9   rms: 0.3154E+00   max: -.1497E+01   T at   45  2   RLX: 0.334
       a =  7.500      CL =  1.5335
      Cm = -0.2848     CD =  0.20002   =>   CDf =  0.00135    CDp =  0.19867

 Side 1  free  transition at x/c =  0.0480   27
 Side 2  free  transition at x/c =  0.7149   45

  10   rms: 0.6351E+00   max: 0.8934E+01   T at   27  1   RLX: 0.168
       a =  7.500      CL =  1.3268
      Cm = -0.2071     CD =  0.21843   =>   CDf =  0.00106    CDp =  0.21737

 MRCHDU: Convergence failed at  28  side 1    Res =  0.3090E+03
 MRCHDU: Convergence failed at  29  side 1    Res =  0.2586E+02
 MRCHDU: Convergence failed at  30  side 1    Res =  0.1266E+03
 MRCHDU: Convergence failed at  31  side 1    Res =  0.1329E+03
 MRCHDU: Convergence failed at  32  side 1    Res =  0.4699E+02
 MRCHDU: Convergence failed at  33  side 1    Res =  0.9736E+02
 MRCHDU: Convergence failed at  34  side 1    Res =  0.8652E+02
 MRCHDU: Convergence failed at  35  side 1    Res =  0.1193E+03
 MRCHDU: Convergence failed at  36  side 1    Res =  0.1686E+03
 MRCHDU: Convergence failed at  37  side 1    Res =  0.7751E+03
 MRCHDU: Convergence failed at  38  side 1    Res =  0.5276E+03
 MRCHDU: Convergence failed at  39  side 1    Res =  0.2280E+03
 MRCHDU: Convergence failed at  40  side 1    Res =  0.1157E+03
 MRCHDU: Convergence failed at  41  side 1    Res =  0.8497E+02
 MRCHDU: Convergence failed at  42  side 1    Res =  0.8624E+02
 MRCHDU: Convergence failed at  43  side 1    Res =  0.2146E+03
 MRCHDU: Convergence failed at  44  side 1    Res =  0.5498E+02
 MRCHDU: Convergence failed at  45  side 1    Res =  0.5838E+02
 MRCHDU: Convergence failed at  46  side 1    Res =  0.6229E+02
 MRCHDU: Convergence failed at  47  side 1    Res =  0.7320E+02
 MRCHDU: Convergence failed at  48  side 1    Res =  0.6708E+02
 MRCHDU: Convergence failed at  49  side 1    Res =  0.8291E+02
 MRCHDU: Convergence failed at  50  side 1    Res =  0.9184E+02
 MRCHDU: Convergence failed at  51  side 1    Res =  0.1020E+03
 MRCHDU: Convergence failed at  52  side 1    Res =  0.1138E+03
 MRCHDU: Convergence failed at  53  side 1    Res =  0.1727E+03
 MRCHDU: Convergence failed at  54  side 1    Res =  0.1838E+03
 MRCHDU: Convergence failed at  55  side 1    Res =  0.1801E+03
 MRCHDU: Convergence failed at  56  side 1    Res =  0.2202E+03
 MRCHDU: Convergence failed at  57  side 1    Res =  0.2817E+03
 MRCHDU: Convergence failed at  58  side 1    Res =  0.4474E+03
 MRCHDU: Convergence failed at  59  side 1    Res =  0.2700E+03
 MRCHDU: Convergence failed at  60  side 1    Res =  0.2006E+03
 MRCHDU: Convergence failed at  61  side 1    Res =  0.1586E+04
 MRCHDU: Convergence failed at  62  side 1    Res =  0.5659E+03
 MRCHDU: Convergence failed at  63  side 1    Res =  0.3215E+03
 MRCHDU: Convergence failed at  64  side 1    Res =  0.2081E+03
 MRCHDU: Convergence failed at  65  side 1    Res =  0.2841E+03
 MRCHDU: Convergence failed at  66  side 1    Res =  0.1169E+03
 MRCHDU: Convergence failed at  67  side 1    Res =  0.9536E+02
 MRCHDU: Convergence failed at  68  side 1    Res =  0.7950E+02
 MRCHDU: Convergence failed at  69  side 1    Res =  0.6400E+02
 MRCHDU: Convergence failed at  70  side 1    Res =  0.7582E+02
 MRCHDU: Convergence failed at  71  side 1    Res =  0.6842E+02
 MRCHDU: Convergence failed at  72  side 1    Res =  0.7024E+02
 MRCHDU: Convergence failed at  73  side 1    Res =  0.1001E+03
 MRCHDU: Convergence failed at  74  side 1    Res =  0.6330E+02
 MRCHDU: Convergence failed at  75  side 1    Res =  0.2081E+03
 MRCHDU: Convergence failed at  76  side 1    Res =  0.2016E+03
 MRCHDU: Convergence failed at  77  side 1    Res =  0.1587E+04
 MRCHDU: Convergence failed at  78  side 1    Res =  0.2731E+03
 MRCHDU: Convergence failed at  79  side 1    Res =  0.4003E+03
 MRCHDU: Convergence failed at  80  side 1    Res =  0.1225E+03
 MRCHDU: Convergence failed at  81  side 1    Res =  0.9939E+02
 MRCHDU: Convergence failed at  82  side 1    Res =  0.7699E+02
 MRCHDU: Convergence failed at  83  side 1    Res =  0.7434E+02
 Side 1  free  transition at x/c =  0.0368   26
 Side 2  free  transition at x/c =  0.7176   44

  11   rms: 0.5749E+02   max: -.9699E+03   T at   27  1   RLX: 0.001
       a =  7.500      CL =  2.7942
      Cm = -0.6449     CD =  0.14137   =>   CDf =  0.00108    CDp =  0.14029

 Side 1  free  transition at x/c =  0.0363   26
 Side 2  free  transition at x/c =  0.7176   44

  12   rms: 0.1299E+01   max: -.1839E+02   T at   26  1   RLX: 0.027
       a =  7.500      CL =  2.4530
      Cm = -0.5291     CD =  0.33515   =>   CDf =  0.00125    CDp =  0.33391

 Side 1  free  transition at x/c =  0.0376   26
 Side 2  free  transition at x/c =  0.7176   44

  13   rms: 0.7131E+00   max: -.4589E+01   T at   44  2   RLX: 0.109
       a =  7.500      CL =  2.3326
      Cm = -0.5039     CD =  0.29710   =>   CDf =  0.00127    CDp =  0.29582

 Side 1  free  transition at x/c =  0.0377   26
 Side 2  free  transition at x/c =  0.7178   44
 idif Ue xi dudx           1  0.11553897      4.61149216E-03   25.054573    
 Uenew xinew           2  1.62299331E-02  6.47783279E-04

  14   rms: 0.6487E+00   max: -.2429E+01   D at   83  2   RLX: 0.206
       a =  7.500      CL =  2.1136
      Cm = -0.4488     CD =  0.23514   =>   CDf =  0.00154    CDp =  0.23360

 Side 1  free  transition at x/c =  0.0378   26
 Side 2  free  transition at x/c =  0.7182   45

  15   rms: 0.8154E+00   max: 0.5167E+01   T at   26  1   RLX: 0.179
       a =  7.500      CL =  1.9491
      Cm = -0.3940     CD =  0.23524   =>   CDf =  0.00110    CDp =  0.23414
 VISCAL:  Convergence failed
 SINVRT: spline inversion failed. Input value returned.
 SINVRT: spline inversion failed. Input value returned.
 SINVRT: spline inversion failed. Input value returned.
 SINVRT: spline inversion failed. Input value returned.
 Calculating wake trajectory ...
 Calculating source influence matrix ...

 Solving BL system ...

 Side 1  free  transition at x/c =  0.0370   26
 Side 2  free  transition at x/c =  0.7189   44

   1   rms: 0.4434E+00   max: 0.1824E+01   D at    2  1   RLX: 0.228
       a =  8.000      CL =  1.7380
      Cm = -0.3265     CD =  0.22655   =>   CDf =  0.00132    CDp =  0.22524

 MRCHDU: Convergence failed at  83  side 2    Res =  0.6550E-01
 Side 1  free  transition at x/c =  0.0355   26
 Side 2  free  transition at x/c =  0.7199   44
 idif Ue xi dudx           1  0.11643215      4.70745564E-03   24.733562    
 Uenew xinew           2  1.83955077E-02  7.43746758E-04

   2   rms: 0.3461E+00   max: 0.1075E+01   D at   27  1   RLX: 0.521
       a =  8.000      CL =  1.4798
      Cm = -0.2632     CD =  0.16940   =>   CDf =  0.00152    CDp =  0.16787

 MRCHDU: Convergence failed at  84  side 2    Res =  0.1414E+00
 Side 1  free  transition at x/c =  0.0352   25
 Side 2  free  transition at x/c =  0.7206   45
 idif Ue xi dudx           1  0.11992125      4.47893143E-03   26.774523    
 Uenew xinew           2  2.45128069E-02  9.15527344E-04

   3   rms: 0.4963E+00   max: 0.1381E+01   T at   45  2   RLX: 0.777
       a =  8.000      CL =  0.9682
      Cm = -0.1704     CD =  0.20978   =>   CDf =  0.00150    CDp =  0.20828

 Side 1  free  transition at x/c =  0.0372   24
 Side 2  free  transition at x/c =  0.6947   45

   4   rms: 0.1679E+00   max: 0.6314E+00   T at   45  2   RLX: 0.960
       a =  8.000      CL =  0.9205
      Cm = -0.1504     CD =  0.17840   =>   CDf =  0.00106    CDp =  0.17734

 MRCHDU: Convergence failed at  30  side 1    Res =  0.3173E+02
 MRCHDU: Convergence failed at  31  side 1    Res =  0.1702E+03
 MRCHDU: Convergence failed at  32  side 1    Res =  0.1656E+03
 MRCHDU: Convergence failed at  33  side 1    Res =  0.1244E+03
 MRCHDU: Convergence failed at  34  side 1    Res =  0.1622E+03
 MRCHDU: Convergence failed at  35  side 1    Res =  0.3016E+03
 MRCHDU: Convergence failed at  36  side 1    Res =  0.9108E+04
 MRCHDU: Convergence failed at  37  side 1    Res =  0.1932E+03
 MRCHDU: Convergence failed at  38  side 1    Res =  0.1515E+03
 MRCHDU: Convergence failed at  39  side 1    Res =  0.9760E+02
 MRCHDU: Convergence failed at  40  side 1    Res =  0.8824E+02
 MRCHDU: Convergence failed at  41  side 1    Res =  0.6763E+02
 MRCHDU: Convergence failed at  42  side 1    Res =  0.5392E+02
 MRCHDU: Convergence failed at  43  side 1    Res =  0.5076E+02
 MRCHDU: Convergence failed at  44  side 1    Res =  0.3285E+02
 MRCHDU: Convergence failed at  45  side 1    Res =  0.3607E+02
 MRCHDU: Convergence failed at  46  side 1    Res =  0.3828E+02
 MRCHDU: Convergence failed at  47  side 1    Res =  0.4174E+02
 MRCHDU: Convergence failed at  48  side 1    Res =  0.4664E+02
 MRCHDU: Convergence failed at  49  side 1    Res =  0.5134E+02
 MRCHDU: Convergence failed at  50  side 1    Res =  0.5672E+02
 MRCHDU: Convergence failed at  51  side 1    Res =  0.6539E+02
 MRCHDU: Convergence failed at  52  side 1    Res =  0.7623E+02
 MRCHDU: Convergence failed at  53  side 1    Res =  0.8036E+02
 MRCHDU: Convergence failed at  54  side 1    Res =  0.9584E+02
 MRCHDU: Convergence failed at  55  side 1    Res =  0.1424E+03
 MRCHDU: Convergence failed at  56  side 1    Res =  0.1879E+03
 MRCHDU: Convergence failed at  57  side 1    Res =  0.5004E+03
 MRCHDU: Convergence failed at  58  side 1    Res =  0.1929E+03
 MRCHDU: Convergence failed at  59  side 1    Res =  0.3976E+03
 MRCHDU: Convergence failed at  60  side 1    Res =  0.9702E+03
 MRCHDU: Convergence failed at  61  side 1    Res =  0.3740E+04
 MRCHDU: Convergence failed at  62  side 1    Res =  0.5023E+03
 MRCHDU: Convergence failed at  63  side 1    Res =  0.1991E+03
 MRCHDU: Convergence failed at  64  side 1    Res =  0.1485E+03
 MRCHDU: Convergence failed at  65  side 1    Res =  0.1720E+03
 MRCHDU: Convergence failed at  66  side 1    Res =  0.1223E+03
 MRCHDU: Convergence failed at  67  side 1    Res =  0.8940E+02
 MRCHDU: Convergence failed at  68  side 1    Res =  0.5855E+02
 MRCHDU: Convergence failed at  69  side 1    Res =  0.1288E+03
 MRCHDU: Convergence failed at  70  side 1    Res =  0.5024E+03
 MRCHDU: Convergence failed at  71  side 1    Res =  0.7923E+02
 MRCHDU: Convergence failed at  72  side 1    Res =  0.1254E+03
 MRCHDU: Convergence failed at  73  side 1    Res =  0.3646E+03
 MRCHDU: Convergence failed at  74  side 1    Res =  0.1177E+03
 MRCHDU: Convergence failed at  75  side 1    Res =  0.1200E+03
 MRCHDU: Convergence failed at  76  side 1    Res =  0.8188E+02
 MRCHDU: Convergence failed at  77  side 1    Res =  0.6366E+02
 MRCHDU: Convergence failed at  78  side 1    Res =  0.4698E+02
 MRCHDU: Convergence failed at  79  side 1    Res =  0.5464E+02
 MRCHDU: Convergence failed at  80  side 1    Res =  0.6528E+02
 MRCHDU: Convergence failed at  81  side 1    Res =  0.8536E+02
 MRCHDU: Convergence failed at  82  side 1    Res =  0.2958E+03
 MRCHDU: Convergence failed at  82  side 2    Res =  0.5167E-01
 Side 1  free  transition at x/c =  0.0779   30
 Side 2  free  transition at x/c =  0.6879   43

   5   rms: 0.2476E+01   max: 0.1955E+02   T at   30  1   RLX: 0.060
       a =  8.000      CL =  1.7901
      Cm = -0.4202     CD =  0.05167   =>   CDf =  0.00065    CDp =  0.05102

 MRCHDU: Convergence failed at  82  side 2    Res =  0.1077E+02
 Side 1  free  transition at x/c =  0.0723   29
 Side 2  free  transition at x/c =  0.6834   43
 idif Ue xi dudx           1  9.48634520E-02  3.56733799E-03   26.592224    
 Uenew xinew           2  1.04611325E-04  3.93390656E-06

   6   rms: 0.7334E+00   max: 0.9162E+01   T at   29  1   RLX: 0.118
       a =  8.000      CL =  1.4948
      Cm = -0.3274     CD =  0.22820   =>   CDf =  0.00121    CDp =  0.22699

 Side 1  free  transition at x/c =  0.0592   27
 Side 2  free  transition at x/c =  0.6915   44

   7   rms: 0.2948E+02   max: 0.4698E+03   T at    2  2   RLX: 0.003
       a =  8.000      CL =  1.5403
      Cm = -0.3415     CD =  0.30707   =>   CDf =  0.00101    CDp =  0.30606

 Side 1  free  transition at x/c =  0.0586   28
 Side 2  free  transition at x/c =  0.6966   44
 idif Ue xi dudx           1  9.05194730E-02  3.61073017E-03   25.069576    
 Uenew xinew           2  1.18644501E-03  4.73260880E-05

   8   rms: 0.1679E+01   max: -.2632E+02   T at    2  1   RLX: 0.019
       a =  8.000      CL =  1.5270
      Cm = -0.3381     CD =  0.30382   =>   CDf =  0.00133    CDp =  0.30249

 Side 1  free  transition at x/c =  0.0583   27
 Side 2  free  transition at x/c =  0.6972   45

   9   rms: 0.1025E+01   max: -.1400E+02   D at    2  2   RLX: 0.036
       a =  8.000      CL =  1.5014
      Cm = -0.3319     CD =  0.30429   =>   CDf =  0.00119    CDp =  0.30310

 Side 1  free  transition at x/c =  0.0576   27
 Side 2  free  transition at x/c =  0.6988   45

  10   rms: 0.5835E+00   max: -.2342E+01   T at   45  2   RLX: 0.213
       a =  8.000      CL =  1.3415
      Cm = -0.2940     CD =  0.25227   =>   CDf =  0.00119    CDp =  0.25107

 Side 1  free  transition at x/c =  0.0545   27
 Side 2  free  transition at x/c =  0.7079   45

  11   rms: 0.9422E+00   max: -.6591E+01   T at   45  2   RLX: 0.076
       a =  8.000      CL =  1.3029
      Cm = -0.2844     CD =  0.38702   =>   CDf =  0.00122    CDp =  0.38579

 Side 1  free  transition at x/c =  0.0540   27
 Side 2  free  transition at x/c =  0.7170   46

  12   rms: 0.5599E+00   max: -.1735E+01   T at   85  2   RLX: 0.288
       a =  8.000      CL =  1.1467
      Cm = -0.2468     CD =  0.35191   =>   CDf =  0.00130    CDp =  0.35062

 Side 1  free  transition at x/c =  0.0537   26
 Side 2  free  transition at x/c =  0.7198   46

  13   rms: 0.5023E+00   max: 0.1650E+01   D at   50  2   RLX: 0.331
       a =  8.000      CL =  1.0230
      Cm = -0.2182     CD =  0.66426   =>   CDf =  0.00131    CDp =  0.66295

 Side 1  free  transition at x/c =  0.0527   26
 Side 2  free  transition at x/c =  0.7108   45

  14   rms: 0.1480E+01   max: -.1208E+02   T at   45  2   RLX: 0.041
       a =  8.000      CL =  1.0264
      Cm = -0.2187     CD =  1.11522   =>   CDf =  0.00129    CDp =  1.11393

 Side 1  free  transition at x/c =  0.0516   26
 Side 2  free  transition at x/c =  0.7201   46
 idif Ue xi dudx           1  0.10936182      3.30376625E-03   33.102165    
 Uenew xinew           2  2.42684269E-03  7.33137131E-05

  15   rms: 0.3936E+00   max: 0.1452E+01   D at   49  2   RLX: 0.421
       a =  8.000      CL =  0.9373
      Cm = -0.1966     CD =  1.09234   =>   CDf =  0.00150    CDp =  1.09084
 VISCAL:  Convergence failed
 SINVRT: spline inversion failed. Input value returned.
 SINVRT: spline inversion failed. Input value returned.

 Sequence halted since previous  4 points did not converge
 Last-converged  alpha =   6.000    CL =   1.43672

.OPERva   c>  
 Polar accumulation disabled

.OPERv   c>  
        airfoil                    Re           Mach       Ncrit  XtripT  XtripB     file
       ------------------------  ------------  ----------  -----  ------  ------    -------------------
    1  HT 14                     2.430e5       0.000        9.00   1.000   1.000    

Enter polar output filename   s>  
 Output file exists.  Overwrite?  Y

.OPERv   c>  
 XFOIL   c>  
 XFOIL   c>  
