
 ===================================================
  XFOIL Version 6.99
  Copyright (C) 2000   Mark Drela, Harold Youngren

  This software comes with ABSOLUTELY NO WARRANTY,
    subject to the GNU General Public License.

  Caveat computor
 ===================================================

 File  xfoil.def  not found

   QUIT    Exit program

  .OPER    Direct operating point(s)
  .MDES    Complex mapping design routine
  .QDES    Surface speed design routine
  .GDES    Geometry design routine

   SAVE f  Write airfoil to labeled coordinate file
   PSAV f  Write airfoil to plain coordinate file
   ISAV f  Write airfoil to ISES coordinate file
   MSAV f  Write airfoil to MSES coordinate file
   REVE    Reverse written-airfoil node ordering

   LOAD f  Read buffer airfoil from coordinate file
   NACA i  Set NACA 4,5-digit airfoil and buffer airfoil
   INTE    Set buffer airfoil by interpolating two airfoils
   NORM    Buffer airfoil normalization toggle
   XYCM rr Change CM reference location, currently  0.25000 0.00000

   BEND    Display structural properties of current airfoil

   PCOP    Set current-airfoil panel nodes directly from buffer airfoil points
   PANE    Set current-airfoil panel nodes ( 160 ) based on curvature
  .PPAR    Show/change paneling

  .PLOP    Plotting options

   WDEF f  Write  current-settings file
   RDEF f  Reread current-settings file
   NAME s  Specify new airfoil name
   NINC    Increment name version number

   Z       Zoom    | (available in all menus)
   U       Unzoom  | 

 XFOIL   c>  
 Labeled airfoil file.  Name:  AG 36                                           

 Number of input coordinate points: 183
 Counterclockwise ordering
 Max thickness =     0.081989  at x =   0.272
 Max camber    =     0.051638  at x =   0.800

  LE  x,y  =   0.00002   0.02676  |   Chord =   0.99219
  TE  x,y  =   0.98925  -0.04991  |

 Current airfoil nodes set from buffer airfoil nodes ( 183 )

 XFOIL   c>  
.OPERi   c>  
Enter Reynolds number   r>  
 M  =    0.0000
 Re =    243000

.OPERv   c>   Calculating unit vorticity distributions ...
 Calculating wake trajectory ...
 Calculating source influence matrix ...

 Solving BL system ...

 Initializing BL ...
    side            1  ...
 MRCHUE: Inverse mode at  42     Hk =   4.145
 MRCHUE: Inverse mode at  43     Hk =   4.643
 MRCHUE: Inverse mode at  44     Hk =   5.132
 MRCHUE: Inverse mode at  45     Hk =   5.613
 MRCHUE: Inverse mode at  46     Hk =   6.087
 MRCHUE: Inverse mode at  47     Hk =   5.259
 MRCHUE: Inverse mode at  48     Hk =   3.234
 MRCHUE: Inverse mode at  91     Hk =   2.500
 MRCHUE: Inverse mode at  92     Hk =   2.500
 MRCHUE: Inverse mode at  93     Hk =   2.500
 MRCHUE: Inverse mode at  94     Hk =   2.500
 MRCHUE: Inverse mode at  95     Hk =   2.500
 MRCHUE: Inverse mode at  96     Hk =   2.500
 MRCHUE: Inverse mode at  97     Hk =   2.500
 MRCHUE: Inverse mode at  98     Hk =   2.500
 MRCHUE: Convergence failed at  99  side 1    Res =  0.3694E+01
 MRCHUE: Inverse mode at 100     Hk =   2.500
    side            2  ...
 MRCHUE: Inverse mode at  56     Hk =   3.800
 MRCHUE: Inverse mode at  57     Hk =   4.106
 MRCHUE: Inverse mode at  58     Hk =   4.406
 MRCHUE: Inverse mode at  59     Hk =   4.701
 MRCHUE: Inverse mode at  60     Hk =   4.992
 MRCHUE: Inverse mode at  61     Hk =   5.279
 MRCHUE: Inverse mode at  62     Hk =   5.562
 MRCHUE: Inverse mode at  63     Hk =   5.842
 MRCHUE: Convergence failed at  64  side 2    Res =  0.2791E+01
 MRCHUE: Inverse mode at  65     Hk =   6.116
 MRCHUE: Convergence failed at  66  side 2    Res =  0.5251E+01
 MRCHUE: Inverse mode at  67     Hk =   6.235
 MRCHUE: Inverse mode at  68     Hk =   6.294
 MRCHUE: Inverse mode at  69     Hk =   6.384
 MRCHUE: Inverse mode at  70     Hk =   6.563
 MRCHUE: Inverse mode at  71     Hk =   6.828
 MRCHUE: Inverse mode at  72     Hk =   7.090
 MRCHUE: Inverse mode at  73     Hk =   7.350
 MRCHUE: Inverse mode at  74     Hk =   7.607
 MRCHUE: Inverse mode at  75     Hk =   7.862
 MRCHUE: Inverse mode at  76     Hk =   8.116
 MRCHUE: Inverse mode at  77     Hk =   8.367
 MRCHUE: Inverse mode at  78     Hk =   8.617
 MRCHUE: Inverse mode at  79     Hk =   8.865
 MRCHUE: Inverse mode at  80     Hk =   9.111
 MRCHUE: Inverse mode at  81     Hk =   8.663
 MRCHUE: Inverse mode at  82     Hk =   7.645
 MRCHUE: Inverse mode at  83     Hk =   6.910
 MRCHUE: Inverse mode at  84     Hk =   6.390
 MRCHUE: Inverse mode at  85     Hk =   6.144
 MRCHUE: Inverse mode at  87     Hk =   3.583
 MRCHUE: Inverse mode at  88     Hk =   3.314

 MRCHDU: Convergence failed at  99  side 1    Res =  0.1586E+01
 MRCHDU: Convergence failed at 100  side 1    Res =  0.1689E+01
 MRCHDU: Convergence failed at  66  side 2    Res =  0.9728E+01
 MRCHDU: Convergence failed at  67  side 2    Res =  0.1291E+02
 MRCHDU: Convergence failed at  68  side 2    Res =  0.1471E+02
 MRCHDU: Convergence failed at  69  side 2    Res =  0.1672E+02
 MRCHDU: Convergence failed at  70  side 2    Res =  0.2211E+02
 MRCHDU: Convergence failed at  71  side 2    Res =  0.5535E+02
 MRCHDU: Convergence failed at  72  side 2    Res =  0.6126E+02
 MRCHDU: Convergence failed at  73  side 2    Res =  0.2190E+02
 MRCHDU: Convergence failed at  74  side 2    Res =  0.1338E+02
 MRCHDU: Convergence failed at  75  side 2    Res =  0.9382E+01
 MRCHDU: Convergence failed at  76  side 2    Res =  0.7174E+01
 MRCHDU: Convergence failed at  77  side 2    Res =  0.6007E+01
 MRCHDU: Convergence failed at  78  side 2    Res =  0.5176E+01
 MRCHDU: Convergence failed at  79  side 2    Res =  0.4480E+01
 MRCHDU: Convergence failed at  80  side 2    Res =  0.3858E+01
 MRCHDU: Convergence failed at  81  side 2    Res =  0.5410E+01
 MRCHDU: Convergence failed at  82  side 2    Res =  0.7343E+01
 MRCHDU: Convergence failed at  83  side 2    Res =  0.9030E+01
 MRCHDU: Convergence failed at  84  side 2    Res =  0.8840E+01
 MRCHDU: Convergence failed at  85  side 2    Res =  0.8941E+01
 Side 1  free  transition at x/c =  0.3356   47
 Side 2  free  transition at x/c =  0.9697   82

   1   rms: 0.6183E+00   max: -.5621E+01   C at   82  2   RLX: 0.089
       a =  0.000      CL =  1.3467
      Cm = -0.2265     CD =  0.00699   =>   CDf =  0.00721    CDp = -0.00022

 Side 1  free  transition at x/c =  0.3462   48
 Side 2 forced transition at x/c =  0.9998   85

   2   rms: 0.1543E+01   max: -.1161E+02   C at   85  2   RLX: 0.043
       a =  0.000      CL =  1.3100
      Cm = -0.2207     CD =  0.00705   =>   CDf =  0.00707    CDp = -0.00002

 Side 1  free  transition at x/c =  0.3564   49
 Side 2 forced transition at x/c =  0.9998   85

   3   rms: 0.1005E+01   max: -.1202E+02   C at   85  2   RLX: 0.042
       a =  0.000      CL =  1.2834
      Cm = -0.2140     CD =  0.00720   =>   CDf =  0.00715    CDp =  0.00005

 Side 1  free  transition at x/c =  0.3669   49
 Side 2 forced transition at x/c =  0.9998   85

   4   rms: 0.1190E+01   max: -.2153E+02   C at   49  1   RLX: 0.023
       a =  0.000      CL =  1.2784
      Cm = -0.2120     CD =  0.00717   =>   CDf =  0.00657    CDp =  0.00060

 Side 1  free  transition at x/c =  0.3651   49
 Side 2 forced transition at x/c =  0.9998   85

   5   rms: 0.4984E+00   max: -.7170E+01   C at   85  2   RLX: 0.070
       a =  0.000      CL =  1.2547
      Cm = -0.2058     CD =  0.00786   =>   CDf =  0.00727    CDp =  0.00060

 Side 1  free  transition at x/c =  0.3742   50
 Side 2 forced transition at x/c =  0.9998   85

   6   rms: 0.5985E+00   max: -.7392E+01   C at   50  1   RLX: 0.068
       a =  0.000      CL =  1.2411
      Cm = -0.2028     CD =  0.00771   =>   CDf =  0.00688    CDp =  0.00083

 Side 1  free  transition at x/c =  0.3785   50
 Side 2 forced transition at x/c =  0.9998   85

   7   rms: 0.3570E+00   max: -.5025E+01   C at   85  2   RLX: 0.099
       a =  0.000      CL =  1.2207
      Cm = -0.1969     CD =  0.00861   =>   CDf =  0.00723    CDp =  0.00137

 Side 1  free  transition at x/c =  0.3906   51
 Side 2 forced transition at x/c =  0.9998   85

   8   rms: 0.7124E+00   max: -.1288E+02   C at   51  1   RLX: 0.039
       a =  0.000      CL =  1.2197
      Cm = -0.1967     CD =  0.00837   =>   CDf =  0.00659    CDp =  0.00178

 Side 1  free  transition at x/c =  0.3930   51
 Side 2 forced transition at x/c =  0.9998   85

   9   rms: 0.8189E+00   max: -.1443E+02   C at   51  1   RLX: 0.035
       a =  0.000      CL =  1.2168
      Cm = -0.1957     CD =  0.00848   =>   CDf =  0.00642    CDp =  0.00206

 Side 1  free  transition at x/c =  0.3909   51
 Side 2 forced transition at x/c =  0.9998   85
 idif Ue xi dudx           1  0.15000477      2.47871876E-03   60.517059    
 Uenew xinew           2  1.12541451E-03  1.85966492E-05

  10   rms: 0.2847E+00   max: -.3682E+01   C at   85  2   RLX: 0.136
       a =  0.000      CL =  1.1971
      Cm = -0.1903     CD =  0.00952   =>   CDf =  0.00739    CDp =  0.00213
 VISCAL:  Convergence failed
 Type "!" to continue iterating

.OPERv   c>  
  Top    surface:  y =  0.0263     y/t = 1.0
  Bottom surface:  y =  0.0261     y/t = 0.0

 Flap hinge x,y :  0.0000  0.0000
                                           2  2
 Hinge moment/span = 0.489977  x  1/2 rho V  c 
                                           2   
 x-Force     /span = -.014603  x  1/2 rho V  c 
                                           2   
 y-Force     /span = 1.197295  x  1/2 rho V  c 


.OPERv   c>   Calculating wake trajectory ...
 Calculating source influence matrix ...

 Solving BL system ...

 Side 1  free  transition at x/c =  0.4042   51
 Side 2 forced transition at x/c =  0.9998   86

   1   rms: 0.7768E+00   max: 0.1392E+02   T at    2  2   RLX: 0.080
       a =  1.000      CL =  1.1968
      Cm = -0.1879     CD =  0.00996   =>   CDf =  0.00687    CDp =  0.00309

 Side 1  free  transition at x/c =  0.4057   52
 Side 2 forced transition at x/c =  0.9998   85

   2   rms: 0.2763E+00   max: 0.3488E+01   T at    2  1   RLX: 0.207
       a =  1.000      CL =  1.1997
      Cm = -0.1829     CD =  0.01085   =>   CDf =  0.00701    CDp =  0.00384

 Side 1  free  transition at x/c =  0.4112   53
 Side 2 forced transition at x/c =  0.9998   85

   3   rms: 0.1614E+00   max: -.1599E+01   C at   85  2   RLX: 0.313
       a =  1.000      CL =  1.2034
      Cm = -0.1769     CD =  0.01183   =>   CDf =  0.00661    CDp =  0.00522

 Side 1  free  transition at x/c =  0.4171   53
 Side 2 forced transition at x/c =  0.9998   85

   4   rms: 0.1108E+00   max: -.8274E+00   C at   85  2   RLX: 0.604
       a =  1.000      CL =  1.2014
      Cm = -0.1673     CD =  0.01379   =>   CDf =  0.00629    CDp =  0.00750

 Side 1  free  transition at x/c =  0.4214   54
 Side 2 forced transition at x/c =  0.9998   85

   5   rms: 0.5292E-01   max: -.5211E+00   C at   54  1   RLX: 0.960
       a =  1.000      CL =  1.1826
      Cm = -0.1578     CD =  0.01563   =>   CDf =  0.00637    CDp =  0.00926

 Side 1  free  transition at x/c =  0.4354   55
 Side 2 forced transition at x/c =  0.9998   85

   6   rms: 0.7006E-02   max: -.8953E-01   C at   55  1
       a =  1.000      CL =  1.1796
      Cm = -0.1569     CD =  0.01593   =>   CDf =  0.00616    CDp =  0.00977

 Side 1  free  transition at x/c =  0.4376   55
 Side 2 forced transition at x/c =  0.9998   85

   7   rms: 0.3430E-03   max: 0.4091E-02   D at   93  2
       a =  1.000      CL =  1.1797
      Cm = -0.1569     CD =  0.01593   =>   CDf =  0.00612    CDp =  0.00981

 Side 1  free  transition at x/c =  0.4375   55
 Side 2 forced transition at x/c =  0.9998   85

   8   rms: 0.4652E-05   max: -.1703E-04   D at   56  1
       a =  1.000      CL =  1.1797
      Cm = -0.1569     CD =  0.01593   =>   CDf =  0.00612    CDp =  0.00981

.OPERv   c>  
 Flap hinge x,y :  0.0000  0.0000
                                           2  2
 Hinge moment/span = 0.451863  x  1/2 rho V  c 
                                           2   
 x-Force     /span = -.015231  x  1/2 rho V  c 
                                           2   
 y-Force     /span = 1.179635  x  1/2 rho V  c 


.OPERv   c>   Calculating wake trajectory ...
 Calculating source influence matrix ...

 Solving BL system ...

 Side 1  free  transition at x/c =  0.4375   55
 Side 2 forced transition at x/c =  0.9998   85

   1   rms: 0.2141E+00   max: 0.2269E+01   C at   55  1   RLX: 0.457
       a =  2.000      CL =  1.2137
      Cm = -0.1539     CD =  0.01691   =>   CDf =  0.00613    CDp =  0.01078

 Side 1  free  transition at x/c =  0.3612   49
 Side 2 forced transition at x/c =  0.9998   85

   2   rms: 0.1105E+00   max: -.7221E+00   D at   50  1   RLX: 0.692
       a =  2.000      CL =  1.2470
      Cm = -0.1524     CD =  0.01773   =>   CDf =  0.00623    CDp =  0.01149

 Side 1  free  transition at x/c =  0.2878   44
 Side 2 forced transition at x/c =  0.9998   84

   3   rms: 0.4372E-01   max: -.3840E+00   D at   45  1
       a =  2.000      CL =  1.2570
      Cm = -0.1511     CD =  0.01824   =>   CDf =  0.00689    CDp =  0.01134

 Side 1  free  transition at x/c =  0.2618   42
 Side 2 forced transition at x/c =  0.9998   84

   4   rms: 0.8616E-02   max: -.1001E+00   C at   42  1
       a =  2.000      CL =  1.2545
      Cm = -0.1507     CD =  0.01856   =>   CDf =  0.00696    CDp =  0.01160

 Side 1  free  transition at x/c =  0.2642   43
 Side 2 forced transition at x/c =  0.9998   84

   5   rms: 0.3252E-02   max: -.5368E-01   C at   43  1
       a =  2.000      CL =  1.2549
      Cm = -0.1508     CD =  0.01855   =>   CDf =  0.00695    CDp =  0.01160

 Side 1  free  transition at x/c =  0.2643   43
 Side 2 forced transition at x/c =  0.9998   84

   6   rms: 0.2088E-03   max: 0.3386E-02   C at   43  1
       a =  2.000      CL =  1.2550
      Cm = -0.1508     CD =  0.01855   =>   CDf =  0.00693    CDp =  0.01162

 Side 1  free  transition at x/c =  0.2642   43
 Side 2 forced transition at x/c =  0.9998   84

   7   rms: 0.4251E-05   max: -.4236E-04   C at   43  1
       a =  2.000      CL =  1.2550
      Cm = -0.1508     CD =  0.01855   =>   CDf =  0.00693    CDp =  0.01162

.OPERv   c>  
 Flap hinge x,y :  0.0000  0.0000
                                           2  2
 Hinge moment/span = 0.464399  x  1/2 rho V  c 
                                           2   
 x-Force     /span = -.037794  x  1/2 rho V  c 
                                           2   
 y-Force     /span = 1.254356  x  1/2 rho V  c 


.OPERv   c>   Calculating wake trajectory ...
 Calculating source influence matrix ...

 Solving BL system ...

 Side 1  free  transition at x/c =  0.2642   43
 Side 2 forced transition at x/c =  0.9998   84

   1   rms: 0.3090E+00   max: 0.4350E+01   C at   43  1   RLX: 0.249
       a =  3.000      CL =  1.2747
      Cm = -0.1497     CD =  0.01945   =>   CDf =  0.00693    CDp =  0.01252

 Side 1  free  transition at x/c =  0.2210   39
 Side 2 forced transition at x/c =  0.9998   84

   2   rms: 0.1550E+00   max: -.9450E+00   D at   40  1   RLX: 0.529
       a =  3.000      CL =  1.3136
      Cm = -0.1488     CD =  0.02007   =>   CDf =  0.00688    CDp =  0.01319

 Side 1  free  transition at x/c =  0.1602   35
 Side 2 forced transition at x/c =  0.9998   83

   3   rms: 0.8527E-01   max: -.7708E+00   C at   35  1   RLX: 0.649
       a =  3.000      CL =  1.3338
      Cm = -0.1479     CD =  0.02061   =>   CDf =  0.00750    CDp =  0.01312

 Side 1  free  transition at x/c =  0.1313   33
 Side 2 forced transition at x/c =  0.9998   83

   4   rms: 0.2925E-01   max: -.3268E+00   D at   33  1
       a =  3.000      CL =  1.3382
      Cm = -0.1466     CD =  0.02160   =>   CDf =  0.00761    CDp =  0.01399

 Side 1  free  transition at x/c =  0.1147   32
 Side 2 forced transition at x/c =  0.9998   83

   5   rms: 0.1047E-01   max: -.1649E+00   D at   32  1
       a =  3.000      CL =  1.3366
      Cm = -0.1464     CD =  0.02170   =>   CDf =  0.00768    CDp =  0.01402

 Side 1  free  transition at x/c =  0.1150   32
 Side 2 forced transition at x/c =  0.9998   83

   6   rms: 0.1449E-02   max: 0.2313E-01   C at   32  1
       a =  3.000      CL =  1.3368
      Cm = -0.1464     CD =  0.02173   =>   CDf =  0.00768    CDp =  0.01406

 Side 1  free  transition at x/c =  0.1145   32
 Side 2 forced transition at x/c =  0.9998   83

   7   rms: 0.5501E-04   max: -.4649E-03   C at   32  1
       a =  3.000      CL =  1.3367
      Cm = -0.1464     CD =  0.02173   =>   CDf =  0.00769    CDp =  0.01405

.OPERv   c>  
 Flap hinge x,y :  0.0000  0.0000
                                           2  2
 Hinge moment/span = 0.480245  x  1/2 rho V  c 
                                           2   
 x-Force     /span = -.062957  x  1/2 rho V  c 
                                           2   
 y-Force     /span = 1.335168  x  1/2 rho V  c 


.OPERv   c>   Calculating wake trajectory ...
 Calculating source influence matrix ...

 Solving BL system ...

 Side 1  free  transition at x/c =  0.1145   32
 Side 2 forced transition at x/c =  0.9998   83

   1   rms: 0.3365E+00   max: 0.3839E+01   C at   32  1   RLX: 0.181
       a =  4.000      CL =  1.3505
      Cm = -0.1456     CD =  0.02267   =>   CDf =  0.00769    CDp =  0.01498

 Side 1  free  transition at x/c =  0.0929   30
 Side 2 forced transition at x/c =  0.9998   83

   2   rms: 0.2762E+00   max: -.1512E+01   D at   31  1   RLX: 0.205
       a =  4.000      CL =  1.3636
      Cm = -0.1447     CD =  0.02331   =>   CDf =  0.00779    CDp =  0.01552

 Side 1  free  transition at x/c =  0.0730   28
 Side 2 forced transition at x/c =  0.9998   83

   3   rms: 0.2484E+00   max: -.1277E+01   D at   30  1   RLX: 0.231
       a =  4.000      CL =  1.3756
      Cm = -0.1436     CD =  0.02396   =>   CDf =  0.00759    CDp =  0.01637

 Side 1  free  transition at x/c =  0.0556   27
 Side 2 forced transition at x/c =  0.9998   82

   4   rms: 0.2703E+00   max: 0.3317E+01   D at    2  1   RLX: 0.314
       a =  4.000      CL =  1.3865
      Cm = -0.1421     CD =  0.02491   =>   CDf =  0.00806    CDp =  0.01684

 MRCHDU: Convergence failed at  27  side 1    Res =  0.4239E+01
 Side 1  free  transition at x/c =  0.0416   26
 Side 2 forced transition at x/c =  0.9998   82

   5   rms: 0.9730E-01   max: -.9168E+00   D at   27  1   RLX: 0.545
       a =  4.000      CL =  1.3983
      Cm = -0.1409     CD =  0.02587   =>   CDf =  0.00800    CDp =  0.01787

 MRCHDU: Convergence failed at  26  side 1    Res =  0.2902E+01
 Side 1  free  transition at x/c =  0.0370   25
 Side 2 forced transition at x/c =  0.9998   82

   6   rms: 0.5354E-01   max: -.4736E+00   D at   27  1
       a =  4.000      CL =  1.4021
      Cm = -0.1385     CD =  0.02646   =>   CDf =  0.00790    CDp =  0.01856

 Side 1  free  transition at x/c =  0.0311   24
 Side 2 forced transition at x/c =  0.9998   82

   7   rms: 0.2772E-01   max: -.2028E+00   D at   27  1
       a =  4.000      CL =  1.3943
      Cm = -0.1376     CD =  0.02730   =>   CDf =  0.00812    CDp =  0.01919

 Side 1  free  transition at x/c =  0.0321   25
 Side 2 forced transition at x/c =  0.9998   82

   8   rms: 0.3637E-02   max: -.4485E-01   D at   24  1
       a =  4.000      CL =  1.3958
      Cm = -0.1378     CD =  0.02739   =>   CDf =  0.00814    CDp =  0.01925

 Side 1  free  transition at x/c =  0.0319   24
 Side 2 forced transition at x/c =  0.9998   82

   9   rms: 0.3051E-02   max: -.3206E-01   D at   24  1
       a =  4.000      CL =  1.3969
      Cm = -0.1380     CD =  0.02727   =>   CDf =  0.00814    CDp =  0.01913

 Side 1  free  transition at x/c =  0.0319   24
 Side 2 forced transition at x/c =  0.9998   82

  10   rms: 0.1724E-03   max: 0.1318E-02   T at   24  1
       a =  4.000      CL =  1.3970
      Cm = -0.1380     CD =  0.02727   =>   CDf =  0.00814    CDp =  0.01913
 VISCAL:  Convergence failed
 Type "!" to continue iterating

.OPERv   c>  
 Flap hinge x,y :  0.0000  0.0000
                                           2  2
 Hinge moment/span = 0.486561  x  1/2 rho V  c 
                                           2   
 x-Force     /span = -.088149  x  1/2 rho V  c 
                                           2   
 y-Force     /span = 1.394152  x  1/2 rho V  c 


.OPERv   c>   Calculating wake trajectory ...
 Calculating source influence matrix ...

 Solving BL system ...

 Side 1  free  transition at x/c =  0.0319   24
 Side 2 forced transition at x/c =  0.9998   82

   1   rms: 0.1898E+00   max: 0.1918E+01   T at   24  1   RLX: 0.282
       a =  5.000      CL =  1.4200
      Cm = -0.1364     CD =  0.02807   =>   CDf =  0.00814    CDp =  0.01993

 Side 1  free  transition at x/c =  0.0271   24
 Side 2 forced transition at x/c =  0.9998   82

   2   rms: 0.1255E+00   max: 0.9938E+00   T at   24  1
       a =  5.000      CL =  1.4549
      Cm = -0.1295     CD =  0.03255   =>   CDf =  0.00765    CDp =  0.02490

 MRCHDU: Convergence failed at  25  side 1    Res =  0.9098E+01
 MRCHDU: Convergence failed at  26  side 1    Res =  0.9325E+01
 MRCHDU: Convergence failed at  27  side 1    Res =  0.5153E+01
 MRCHDU: Convergence failed at  28  side 1    Res =  0.5398E+01
 MRCHDU: Convergence failed at  29  side 1    Res =  0.6458E+01
 MRCHDU: Convergence failed at  30  side 1    Res =  0.7048E+01
 MRCHDU: Convergence failed at  31  side 1    Res =  0.1079E+02
 MRCHDU: Convergence failed at  32  side 1    Res =  0.1354E+02
 MRCHDU: Convergence failed at  33  side 1    Res =  0.3420E+02
 MRCHDU: Convergence failed at  34  side 1    Res =  0.3009E+02
 MRCHDU: Convergence failed at  35  side 1    Res =  0.2568E+02
 MRCHDU: Convergence failed at  36  side 1    Res =  0.2336E+02
 MRCHDU: Convergence failed at  37  side 1    Res =  0.3027E+02
 MRCHDU: Convergence failed at  38  side 1    Res =  0.9997E+02
 MRCHDU: Convergence failed at  39  side 1    Res =  0.3974E+02
 MRCHDU: Convergence failed at  40  side 1    Res =  0.2783E+02
 MRCHDU: Convergence failed at  41  side 1    Res =  0.5476E+02
 MRCHDU: Convergence failed at  42  side 1    Res =  0.1943E+03
 MRCHDU: Convergence failed at  43  side 1    Res =  0.7045E+02
 MRCHDU: Convergence failed at  44  side 1    Res =  0.5175E+02
 MRCHDU: Convergence failed at  45  side 1    Res =  0.3893E+02
 MRCHDU: Convergence failed at  46  side 1    Res =  0.1069E+03
 MRCHDU: Convergence failed at  47  side 1    Res =  0.1229E+04
 MRCHDU: Convergence failed at  48  side 1    Res =  0.1735E+03
 MRCHDU: Convergence failed at  49  side 1    Res =  0.7991E+03
 MRCHDU: Convergence failed at  50  side 1    Res =  0.4021E+03
 MRCHDU: Convergence failed at  51  side 1    Res =  0.8703E+02
 MRCHDU: Convergence failed at  52  side 1    Res =  0.2762E+02
 MRCHDU: Convergence failed at  53  side 1    Res =  0.2624E+02
 MRCHDU: Convergence failed at  54  side 1    Res =  0.2335E+02
 MRCHDU: Convergence failed at  55  side 1    Res =  0.2465E+02
 MRCHDU: Convergence failed at  56  side 1    Res =  0.2752E+02
 MRCHDU: Convergence failed at  57  side 1    Res =  0.1216E+03
 MRCHDU: Convergence failed at  58  side 1    Res =  0.6536E+02
 MRCHDU: Convergence failed at  59  side 1    Res =  0.7196E+02
 MRCHDU: Convergence failed at  60  side 1    Res =  0.7471E+02
 MRCHDU: Convergence failed at  61  side 1    Res =  0.6665E+02
 MRCHDU: Convergence failed at  62  side 1    Res =  0.7609E+02
 MRCHDU: Convergence failed at  63  side 1    Res =  0.8620E+02
 MRCHDU: Convergence failed at  64  side 1    Res =  0.9805E+02
 MRCHDU: Convergence failed at  65  side 1    Res =  0.1102E+03
 MRCHDU: Convergence failed at  66  side 1    Res =  0.8143E+02
 MRCHDU: Convergence failed at  67  side 1    Res =  0.8692E+02
 MRCHDU: Convergence failed at  68  side 1    Res =  0.9178E+02
 MRCHDU: Convergence failed at  69  side 1    Res =  0.5629E+02
 MRCHDU: Convergence failed at  70  side 1    Res =  0.5752E+02
 MRCHDU: Convergence failed at  71  side 1    Res =  0.5849E+02
 MRCHDU: Convergence failed at  72  side 1    Res =  0.5929E+02
 MRCHDU: Convergence failed at  73  side 1    Res =  0.5795E+02
 MRCHDU: Convergence failed at  74  side 1    Res =  0.5827E+02
 MRCHDU: Convergence failed at  75  side 1    Res =  0.6513E+02
 MRCHDU: Convergence failed at  76  side 1    Res =  0.1459E+03
 MRCHDU: Convergence failed at  77  side 1    Res =  0.6328E+02
 MRCHDU: Convergence failed at  78  side 1    Res =  0.7633E+02
 MRCHDU: Convergence failed at  79  side 1    Res =  0.7757E+02
 MRCHDU: Convergence failed at  80  side 1    Res =  0.7942E+02
 MRCHDU: Convergence failed at  81  side 1    Res =  0.8108E+02
 MRCHDU: Convergence failed at  82  side 1    Res =  0.8126E+02
 MRCHDU: Convergence failed at  83  side 1    Res =  0.7929E+02
 MRCHDU: Convergence failed at  84  side 1    Res =  0.7452E+02
 MRCHDU: Convergence failed at  85  side 1    Res =  0.6654E+02
 MRCHDU: Convergence failed at  86  side 1    Res =  0.3666E+02
 MRCHDU: Convergence failed at  87  side 1    Res =  0.3084E+02
 MRCHDU: Convergence failed at  88  side 1    Res =  0.3241E+03
 MRCHDU: Convergence failed at  89  side 1    Res =  0.1758E+03
 MRCHDU: Convergence failed at  90  side 1    Res =  0.4031E+02
 MRCHDU: Convergence failed at  91  side 1    Res =  0.7124E+02
 MRCHDU: Convergence failed at  92  side 1    Res =  0.9201E+02
 MRCHDU: Convergence failed at  93  side 1    Res =  0.1371E+03
 MRCHDU: Convergence failed at  94  side 1    Res =  0.3634E+03
 MRCHDU: Convergence failed at  95  side 1    Res =  0.3936E+03
 MRCHDU: Convergence failed at  96  side 1    Res =  0.6424E+03
 MRCHDU: Convergence failed at  97  side 1    Res =  0.2022E+03
 MRCHDU: Convergence failed at  98  side 1    Res =  0.9326E+02
 MRCHDU: Convergence failed at  99  side 1    Res =  0.6733E+02
 MRCHDU: Convergence failed at 100  side 1    Res =  0.6553E+02
 MRCHDU: Convergence failed at 101  side 1    Res =  0.9190E+02
 MRCHDU: Convergence failed at 102  side 1    Res =  0.8177E+02
 MRCHDU: Convergence failed at 103  side 1    Res =  0.7483E+02
 MRCHDU: Convergence failed at 104  side 1    Res =  0.6681E+02
 MRCHDU: Convergence failed at  91  side 2    Res =  0.5316E+01
 MRCHDU: Convergence failed at  92  side 2    Res =  0.4139E+01
 MRCHDU: Convergence failed at  93  side 2    Res =  0.3016E+01
 Side 1  free  transition at x/c =  0.0230   24
 Side 2 forced transition at x/c =  0.9998   81

   3   rms: 0.2177E+01   max: 0.1036E+02   D at   86  2   RLX: 0.104
       a =  5.000      CL =  3.9761
      Cm = -0.9358     CD =  0.00717   =>   CDf =  0.00113    CDp =  0.00605

 MRCHDU: Convergence failed at  35  side 1    Res =  0.2835E+00
 MRCHDU: Convergence failed at  36  side 1    Res =  0.2782E+00
 MRCHDU: Convergence failed at  37  side 1    Res =  0.2731E+00
 MRCHDU: Convergence failed at  38  side 1    Res =  0.2680E+00
 MRCHDU: Convergence failed at  39  side 1    Res =  0.2627E+00
 MRCHDU: Convergence failed at  40  side 1    Res =  0.2578E+00
 MRCHDU: Convergence failed at  41  side 1    Res =  0.2525E+00
 MRCHDU: Convergence failed at  42  side 1    Res =  0.2473E+00
 MRCHDU: Convergence failed at  43  side 1    Res =  0.2422E+00
 MRCHDU: Convergence failed at  44  side 1    Res =  0.2369E+00
 MRCHDU: Convergence failed at  45  side 1    Res =  0.2313E+00
 MRCHDU: Convergence failed at  46  side 1    Res =  0.2259E+00
 MRCHDU: Convergence failed at  47  side 1    Res =  0.2206E+00
 MRCHDU: Convergence failed at  48  side 1    Res =  0.2153E+00
 MRCHDU: Convergence failed at  49  side 1    Res =  0.2100E+00
 MRCHDU: Convergence failed at  50  side 1    Res =  0.2047E+00
 MRCHDU: Convergence failed at  51  side 1    Res =  0.1993E+00
 MRCHDU: Convergence failed at  52  side 1    Res =  0.1933E+00
 MRCHDU: Convergence failed at  53  side 1    Res =  0.1869E+00
 MRCHDU: Convergence failed at  54  side 1    Res =  0.1794E+00
 MRCHDU: Convergence failed at  55  side 1    Res =  0.1712E+00
 MRCHDU: Convergence failed at  56  side 1    Res =  0.1621E+00
 MRCHDU: Convergence failed at  57  side 1    Res =  0.1529E+00
 MRCHDU: Convergence failed at  58  side 1    Res =  0.1427E+00
 MRCHDU: Convergence failed at  59  side 1    Res =  0.1310E+00
 MRCHDU: Convergence failed at  60  side 1    Res =  0.1172E+00
 MRCHDU: Convergence failed at  61  side 1    Res =  0.8941E-01
 MRCHDU: Convergence failed at  91  side 1    Res =  0.1574E+00
 MRCHDU: Convergence failed at  92  side 1    Res =  0.8741E-01
 MRCHDU: Convergence failed at  93  side 1    Res =  0.3352E-02
 MRCHDU: Convergence failed at  86  side 2    Res =  0.4452E+01
 MRCHDU: Convergence failed at  87  side 2    Res =  0.2730E+01
 MRCHDU: Convergence failed at  88  side 2    Res =  0.1183E+03
 MRCHDU: Convergence failed at  89  side 2    Res =  0.3163E+01
 Side 1  free  transition at x/c =  0.0223   24
 Side 2 forced transition at x/c =  0.9998   81

   4   rms: 0.7226E+00   max: 0.1055E+01   D at   90  2   RLX: 0.218
       a =  5.000      CL =  2.6004
      Cm = -0.5723     CD =  0.03606   =>   CDf =  0.00257    CDp =  0.03349

 MRCHDU: Convergence failed at  52  side 1    Res =  0.2227E+01
 MRCHDU: Convergence failed at  61  side 1    Res =  0.2288E+00
 MRCHDU: Convergence failed at  92  side 1    Res =  0.6397E+00
 MRCHDU: Convergence failed at  93  side 1    Res =  0.1135E+01
 MRCHDU: Convergence failed at  94  side 1    Res =  0.5808E+00
 MRCHDU: Convergence failed at  95  side 1    Res =  0.5638E+00
 MRCHDU: Convergence failed at  96  side 1    Res =  0.5419E+00
 MRCHDU: Convergence failed at  97  side 1    Res =  0.5196E+00
 MRCHDU: Convergence failed at  98  side 1    Res =  0.4967E+00
 MRCHDU: Convergence failed at  99  side 1    Res =  0.4729E+00
 MRCHDU: Convergence failed at 100  side 1    Res =  0.4485E+00
 MRCHDU: Convergence failed at 101  side 1    Res =  0.4237E+00
 MRCHDU: Convergence failed at 102  side 1    Res =  0.4004E+00
 MRCHDU: Convergence failed at 103  side 1    Res =  0.3787E+00
 MRCHDU: Convergence failed at 104  side 1    Res =  0.3589E+00
 Side 1  free  transition at x/c =  0.0209   24
 Side 2 forced transition at x/c =  0.9998   81
 idif Ue xi dudx           1  0.13075446      5.61261177E-03   23.296543    
 Uenew xinew           2  8.83693714E-03  3.79323959E-04

   5   rms: 0.5932E+00   max: -.2421E+01   T at   24  1   RLX: 0.207
       a =  5.000      CL =  1.9444
      Cm = -0.3279     CD =  0.06060   =>   CDf =  0.00334    CDp =  0.05726

 Side 1  free  transition at x/c =  0.0232   23
 Side 2 forced transition at x/c =  0.9998   82

   6   rms: 0.1057E+01   max: -.5043E+01   D at   44  1   RLX: 0.099
       a =  5.000      CL =  1.8379
      Cm = -0.3034     CD =  0.07127   =>   CDf =  0.00301    CDp =  0.06826

 Side 1  free  transition at x/c =  0.0277   24
 Side 2 forced transition at x/c =  0.9998   82

   7   rms: 0.5023E+00   max: -.2253E+01   D at   33  1   RLX: 0.222
       a =  5.000      CL =  1.6697
      Cm = -0.2523     CD =  0.06060   =>   CDf =  0.00433    CDp =  0.05627

 Side 1  free  transition at x/c =  0.0317   24
 Side 2 forced transition at x/c =  0.9998   82

   8   rms: 0.5671E+00   max: -.1829E+01   T at   26  1   RLX: 0.270
       a =  5.000      CL =  1.5285
      Cm = -0.2029     CD =  0.06030   =>   CDf =  0.00477    CDp =  0.05552

 Side 1  free  transition at x/c =  0.0283   24
 Side 2 forced transition at x/c =  0.9998   82

   9   rms: 0.4488E+00   max: -.1595E+01   D at   33  1   RLX: 0.313
       a =  5.000      CL =  1.4398
      Cm = -0.1686     CD =  0.05766   =>   CDf =  0.00382    CDp =  0.05384

 Side 1  free  transition at x/c =  0.0306   24
 Side 2 forced transition at x/c =  0.9998   82

  10   rms: 0.2118E+01   max: -.1595E+02   T at   24  1   RLX: 0.031
       a =  5.000      CL =  1.4066
      Cm = -0.1688     CD =  0.06897   =>   CDf =  0.00448    CDp =  0.06449
 VISCAL:  Convergence failed
 Type "!" to continue iterating

.OPERv   c>  
 Flap hinge x,y :  0.0000  0.0000
                                           2  2
 Hinge moment/span = 0.520379  x  1/2 rho V  c 
                                           2   
 x-Force     /span = -.062861  x  1/2 rho V  c 
                                           2   
 y-Force     /span = 1.406276  x  1/2 rho V  c 


.OPERv   c>  
 Solving BL system ...

 Side 1  free  transition at x/c =  0.0376   25
 Side 2 forced transition at x/c =  0.9998   82

   1   rms: 0.1143E+01   max: 0.1063E+02   T at   25  1   RLX: 0.074
       a =  5.000      CL =  1.4018
      Cm = -0.1467     CD =  0.05880   =>   CDf =  0.00498    CDp =  0.05382

 Side 1  free  transition at x/c =  0.0303   24
 Side 2 forced transition at x/c =  0.9998   82

   2   rms: 0.5767E+00   max: -.2577E+01   D at   33  1   RLX: 0.194
       a =  5.000      CL =  1.3965
      Cm = -0.1446     CD =  0.05563   =>   CDf =  0.00467    CDp =  0.05095

 Side 1  free  transition at x/c =  0.0319   24
 Side 2 forced transition at x/c =  0.9998   82

   3   rms: 0.7334E+00   max: -.3289E+01   C at   24  1   RLX: 0.152
       a =  5.000      CL =  1.4054
      Cm = -0.1272     CD =  0.04789   =>   CDf =  0.00521    CDp =  0.04268

 Side 1  free  transition at x/c =  0.0284   24
 Side 2 forced transition at x/c =  0.9998   82

   4   rms: 0.6417E+00   max: -.2705E+01   D at   29  1   RLX: 0.185
       a =  5.000      CL =  1.4182
      Cm = -0.1224     CD =  0.04304   =>   CDf =  0.00547    CDp =  0.03758

 Side 1  free  transition at x/c =  0.0277   24
 Side 2 forced transition at x/c =  0.9998   82

   5   rms: 0.8274E+00   max: -.3007E+01   D at   29  1   RLX: 0.166
       a =  5.000      CL =  1.4564
      Cm = -0.1167     CD =  0.03562   =>   CDf =  0.00549    CDp =  0.03013

 Side 1  free  transition at x/c =  0.0252   25
 Side 2 forced transition at x/c =  0.9998   81

   6   rms: 0.5623E+00   max: -.2213E+01   D at   87  1   RLX: 0.226
       a =  5.000      CL =  1.4881
      Cm = -0.1175     CD =  0.03192   =>   CDf =  0.00621    CDp =  0.02571

 MRCHDU: Convergence failed at  53  side 1    Res =  0.3749E+01
 Side 1  free  transition at x/c =  0.0230   24
 Side 2 forced transition at x/c =  0.9998   81

   7   rms: 0.2414E+00   max: -.1159E+01   D at   87  1   RLX: 0.431
       a =  5.000      CL =  1.5006
      Cm = -0.1239     CD =  0.03311   =>   CDf =  0.00697    CDp =  0.02614

 Side 1  free  transition at x/c =  0.0220   24
 Side 2 forced transition at x/c =  0.9998   81

   8   rms: 0.1324E+00   max: -.7020E+00   D at   87  1   RLX: 0.712
       a =  5.000      CL =  1.4742
      Cm = -0.1276     CD =  0.03226   =>   CDf =  0.00731    CDp =  0.02495

 Side 1  free  transition at x/c =  0.0219   24
 Side 2 forced transition at x/c =  0.9998   81

   9   rms: 0.4552E-01   max: -.2707E+00   D at   87  1
       a =  5.000      CL =  1.4496
      Cm = -0.1281     CD =  0.03284   =>   CDf =  0.00764    CDp =  0.02520

 Side 1  free  transition at x/c =  0.0223   24
 Side 2 forced transition at x/c =  0.9998   81

  10   rms: 0.3025E-02   max: -.2724E-01   D at   87  1
       a =  5.000      CL =  1.4481
      Cm = -0.1280     CD =  0.03302   =>   CDf =  0.00774    CDp =  0.02528

 Side 1  free  transition at x/c =  0.0223   24
 Side 2 forced transition at x/c =  0.9998   81

  11   rms: 0.5350E-04   max: -.3242E-03   D at   97  2
       a =  5.000      CL =  1.4481
      Cm = -0.1280     CD =  0.03302   =>   CDf =  0.00774    CDp =  0.02528
 Calculating wake trajectory ...
 Calculating source influence matrix ...

 Solving BL system ...

 Side 1  free  transition at x/c =  0.0223   24
 Side 2 forced transition at x/c =  0.9998   81

   1   rms: 0.8180E-01   max: 0.4556E+00   T at   24  1   RLX: 0.975
       a =  5.500      CL =  1.4773
      Cm = -0.1240     CD =  0.03594   =>   CDf =  0.00774    CDp =  0.02819

 Side 1  free  transition at x/c =  0.0194   23
 Side 2 forced transition at x/c =  0.9998   81

   2   rms: 0.5296E-01   max: -.2839E+00   D at   24  1
       a =  5.500      CL =  1.4657
      Cm = -0.1224     CD =  0.03706   =>   CDf =  0.00768    CDp =  0.02938

 Side 1  free  transition at x/c =  0.0196   24
 Side 2 forced transition at x/c =  0.9998   81

   3   rms: 0.2933E-01   max: 0.1300E+00   D at   24  1
       a =  5.500      CL =  1.4750
      Cm = -0.1238     CD =  0.03754   =>   CDf =  0.00765    CDp =  0.02990

 Side 1  free  transition at x/c =  0.0194   23
 Side 2 forced transition at x/c =  0.9998   81

   4   rms: 0.3868E-02   max: -.4743E-01   D at   23  1
       a =  5.500      CL =  1.4739
      Cm = -0.1236     CD =  0.03715   =>   CDf =  0.00765    CDp =  0.02950

 Side 1  free  transition at x/c =  0.0194   23
 Side 2 forced transition at x/c =  0.9998   81

   5   rms: 0.2149E-03   max: 0.9621E-03   D at   25  1
       a =  5.500      CL =  1.4741
      Cm = -0.1236     CD =  0.03713   =>   CDf =  0.00766    CDp =  0.02947

 Side 1  free  transition at x/c =  0.0194   23
 Side 2 forced transition at x/c =  0.9998   81

   6   rms: 0.1265E-04   max: -.7698E-04   T at   23  1
       a =  5.500      CL =  1.4741
      Cm = -0.1236     CD =  0.03713   =>   CDf =  0.00766    CDp =  0.02947
 Calculating wake trajectory ...
 Calculating source influence matrix ...

 Solving BL system ...

 Side 1  free  transition at x/c =  0.0194   23
 Side 2 forced transition at x/c =  0.9998   81

   1   rms: 0.6998E-01   max: 0.5406E+00   T at   23  1   RLX: 0.917
       a =  6.000      CL =  1.4991
      Cm = -0.1194     CD =  0.03912   =>   CDf =  0.00767    CDp =  0.03145

 Side 1  free  transition at x/c =  0.0183   23
 Side 2 forced transition at x/c =  0.9998   81

   2   rms: 0.2410E-01   max: 0.2110E+00   D at   23  1
       a =  6.000      CL =  1.5045
      Cm = -0.1195     CD =  0.04079   =>   CDf =  0.00728    CDp =  0.03350

 Side 1  free  transition at x/c =  0.0181   23
 Side 2 forced transition at x/c =  0.9998   81

   3   rms: 0.2874E-02   max: 0.1580E-01   D at   97  1
       a =  6.000      CL =  1.5027
      Cm = -0.1193     CD =  0.04071   =>   CDf =  0.00721    CDp =  0.03350

 Side 1  free  transition at x/c =  0.0181   23
 Side 2 forced transition at x/c =  0.9998   81

   4   rms: 0.9772E-04   max: 0.5435E-03   D at   94  2
       a =  6.000      CL =  1.5026
      Cm = -0.1192     CD =  0.04070   =>   CDf =  0.00721    CDp =  0.03349
 Calculating wake trajectory ...
 Calculating source influence matrix ...

 Solving BL system ...

 Side 1  free  transition at x/c =  0.0181   23
 Side 2 forced transition at x/c =  0.9998   81

   1   rms: 0.9013E-01   max: 0.2265E+00   D at   27  1   RLX: 0.885
       a =  6.500      CL =  1.5332
      Cm = -0.1163     CD =  0.04480   =>   CDf =  0.00676    CDp =  0.03804

 Side 1  free  transition at x/c =  0.0173   24
 Side 2 forced transition at x/c =  0.9998   80

   2   rms: 0.1141E-01   max: 0.4569E-01   D at   99  1
       a =  6.500      CL =  1.5260
      Cm = -0.1144     CD =  0.04561   =>   CDf =  0.00670    CDp =  0.03891

 Side 1  free  transition at x/c =  0.0173   24
 Side 2 forced transition at x/c =  0.9998   80

   3   rms: 0.1009E-02   max: -.1221E-01   D at    4  1
       a =  6.500      CL =  1.5256
      Cm = -0.1143     CD =  0.04556   =>   CDf =  0.00666    CDp =  0.03890

 Side 1  free  transition at x/c =  0.0173   24
 Side 2 forced transition at x/c =  0.9998   80

   4   rms: 0.3172E-04   max: -.1038E-03   D at   99  1
       a =  6.500      CL =  1.5256
      Cm = -0.1143     CD =  0.04556   =>   CDf =  0.00666    CDp =  0.03889
 Calculating wake trajectory ...
 Calculating source influence matrix ...

 Solving BL system ...

 Side 1  free  transition at x/c =  0.0173   24
 Side 2 forced transition at x/c =  0.9998   80

   1   rms: 0.8876E-01   max: 0.2306E+00   D at   88  1   RLX: 0.819
       a =  7.000      CL =  1.5435
      Cm = -0.1104     CD =  0.05036   =>   CDf =  0.00667    CDp =  0.04369

 Side 1  free  transition at x/c =  0.0170   24
 Side 2 forced transition at x/c =  0.9998   80

   2   rms: 0.2089E-01   max: 0.7461E-01   D at   99  1
       a =  7.000      CL =  1.5329
      Cm = -0.1077     CD =  0.05168   =>   CDf =  0.00612    CDp =  0.04556

 Side 1  free  transition at x/c =  0.0171   24
 Side 2 forced transition at x/c =  0.9998   80

   3   rms: 0.1735E-02   max: 0.1330E-01   D at   94  2
       a =  7.000      CL =  1.5314
      Cm = -0.1075     CD =  0.05152   =>   CDf =  0.00601    CDp =  0.04552

 Side 1  free  transition at x/c =  0.0171   24
 Side 2 forced transition at x/c =  0.9998   80

   4   rms: 0.1313E-03   max: -.4340E-03   D at   99  1
       a =  7.000      CL =  1.5315
      Cm = -0.1075     CD =  0.05153   =>   CDf =  0.00602    CDp =  0.04551

 Side 1  free  transition at x/c =  0.0171   24
 Side 2 forced transition at x/c =  0.9998   80

   5   rms: 0.9202E-05   max: -.2860E-04   T at   98  1
       a =  7.000      CL =  1.5315
      Cm = -0.1075     CD =  0.05153   =>   CDf =  0.00601    CDp =  0.04551
 Calculating wake trajectory ...
 Calculating source influence matrix ...

 Solving BL system ...

 Side 1  free  transition at x/c =  0.0171   24
 Side 2 forced transition at x/c =  0.9998   80

   1   rms: 0.8731E-01   max: 0.2773E+00   D at   88  1   RLX: 0.735
       a =  7.500      CL =  1.5322
      Cm = -0.1025     CD =  0.05687   =>   CDf =  0.00602    CDp =  0.05085

 Side 1  free  transition at x/c =  0.0170   24
 Side 2 forced transition at x/c =  0.9998   80

   2   rms: 0.1937E-01   max: 0.9019E-01   D at   97  1
       a =  7.500      CL =  1.5179
      Cm = -0.0993     CD =  0.05834   =>   CDf =  0.00542    CDp =  0.05292

 Side 1  free  transition at x/c =  0.0170   24
 Side 2 forced transition at x/c =  0.9998   80

   3   rms: 0.1025E-02   max: 0.1983E-01   D at   95  2
       a =  7.500      CL =  1.5175
      Cm = -0.0992     CD =  0.05818   =>   CDf =  0.00536    CDp =  0.05282

 Side 1  free  transition at x/c =  0.0170   24
 Side 2 forced transition at x/c =  0.9998   80

   4   rms: 0.2929E-04   max: -.9324E-04   D at   97  1
       a =  7.500      CL =  1.5175
      Cm = -0.0992     CD =  0.05818   =>   CDf =  0.00536    CDp =  0.05282
 Calculating wake trajectory ...
 Calculating source influence matrix ...

 Solving BL system ...

 Side 1  free  transition at x/c =  0.0170   24
 Side 2 forced transition at x/c =  0.9998   80

   1   rms: 0.7976E-01   max: 0.2936E+00   D at   88  1   RLX: 0.651
       a =  8.000      CL =  1.5063
      Cm = -0.0942     CD =  0.06331   =>   CDf =  0.00536    CDp =  0.05795

 Side 1  free  transition at x/c =  0.0169   24
 Side 2 forced transition at x/c =  0.9998   80

   2   rms: 0.2707E-01   max: 0.1125E+00   D at   95  1
       a =  8.000      CL =  1.4913
      Cm = -0.0913     CD =  0.06589   =>   CDf =  0.00491    CDp =  0.06098

 Side 1  free  transition at x/c =  0.0170   24
 Side 2 forced transition at x/c =  0.9998   80

   3   rms: 0.2169E-02   max: 0.2254E-01   D at   94  1
       a =  8.000      CL =  1.4895
      Cm = -0.0912     CD =  0.06560   =>   CDf =  0.00474    CDp =  0.06086

 Side 1  free  transition at x/c =  0.0170   24
 Side 2 forced transition at x/c =  0.9998   80

   4   rms: 0.1221E-03   max: -.5023E-03   D at   99  2
       a =  8.000      CL =  1.4896
      Cm = -0.0912     CD =  0.06560   =>   CDf =  0.00475    CDp =  0.06085

 Side 1  free  transition at x/c =  0.0170   24
 Side 2 forced transition at x/c =  0.9998   80

   5   rms: 0.4987E-05   max: 0.2135E-04   C at   80  2
       a =  8.000      CL =  1.4896
      Cm = -0.0912     CD =  0.06560   =>   CDf =  0.00475    CDp =  0.06085
 Calculating wake trajectory ...
 Calculating source influence matrix ...

 Solving BL system ...

 Side 1  free  transition at x/c =  0.0170   24
 Side 2 forced transition at x/c =  0.9998   80

   1   rms: 0.8023E-01   max: 0.3017E+00   D at   88  1   RLX: 0.580
       a =  8.500      CL =  1.4732
      Cm = -0.0873     CD =  0.07095   =>   CDf =  0.00475    CDp =  0.06620

 Side 1  free  transition at x/c =  0.0170   24
 Side 2 forced transition at x/c =  0.9998   80

   2   rms: 0.3591E-01   max: 0.1391E+00   D at   92  1
       a =  8.500      CL =  1.4538
      Cm = -0.0848     CD =  0.07488   =>   CDf =  0.00439    CDp =  0.07049

 Side 1  free  transition at x/c =  0.0171   24
 Side 2 forced transition at x/c =  0.9998   80

   3   rms: 0.4240E-02   max: 0.3438E-01   D at   91  1
       a =  8.500      CL =  1.4506
      Cm = -0.0847     CD =  0.07436   =>   CDf =  0.00416    CDp =  0.07021

 Side 1  free  transition at x/c =  0.0171   24
 Side 2 forced transition at x/c =  0.9998   80

   4   rms: 0.4656E-03   max: -.1647E-02   D at   92  1
       a =  8.500      CL =  1.4510
      Cm = -0.0847     CD =  0.07438   =>   CDf =  0.00418    CDp =  0.07019

 Side 1  free  transition at x/c =  0.0171   24
 Side 2 forced transition at x/c =  0.9998   80

   5   rms: 0.4001E-04   max: 0.1130E-03   D at  100  2
       a =  8.500      CL =  1.4509
      Cm = -0.0847     CD =  0.07438   =>   CDf =  0.00418    CDp =  0.07020
 Calculating wake trajectory ...
 Calculating source influence matrix ...

 Solving BL system ...

 Side 1  free  transition at x/c =  0.0171   24
 Side 2 forced transition at x/c =  0.9998   80

   1   rms: 0.8576E-01   max: 0.2999E+00   D at   86  1   RLX: 0.520
       a =  9.000      CL =  1.4326
      Cm = -0.0827     CD =  0.08034   =>   CDf =  0.00418    CDp =  0.07616

 Side 1  free  transition at x/c =  0.0172   24
 Side 2 forced transition at x/c =  0.9998   80

   2   rms: 0.4523E-01   max: 0.1803E+00   D at   90  1
       a =  9.000      CL =  1.4077
      Cm = -0.0817     CD =  0.08596   =>   CDf =  0.00386    CDp =  0.08210

 Side 1  free  transition at x/c =  0.0173   24
 Side 2 forced transition at x/c =  0.9998   80

   3   rms: 0.7213E-02   max: 0.5245E-01   D at   88  1
       a =  9.000      CL =  1.4039
      Cm = -0.0818     CD =  0.08509   =>   CDf =  0.00362    CDp =  0.08147

 Side 1  free  transition at x/c =  0.0173   24
 Side 2 forced transition at x/c =  0.9998   80

   4   rms: 0.1219E-02   max: -.4452E-02   D at   88  1
       a =  9.000      CL =  1.4048
      Cm = -0.0819     CD =  0.08511   =>   CDf =  0.00365    CDp =  0.08146

 Side 1  free  transition at x/c =  0.0173   24
 Side 2 forced transition at x/c =  0.9998   80

   5   rms: 0.2104E-03   max: 0.6479E-03   D at   85  1
       a =  9.000      CL =  1.4047
      Cm = -0.0819     CD =  0.08510   =>   CDf =  0.00364    CDp =  0.08146

 Side 1  free  transition at x/c =  0.0173   24
 Side 2 forced transition at x/c =  0.9998   80

   6   rms: 0.2795E-04   max: -.1081E-03   C at   80  2
       a =  9.000      CL =  1.4047
      Cm = -0.0819     CD =  0.08510   =>   CDf =  0.00365    CDp =  0.08146
 Calculating wake trajectory ...
 Calculating source influence matrix ...

 Solving BL system ...

 Side 1  free  transition at x/c =  0.0173   24
 Side 2 forced transition at x/c =  0.9998   80

   1   rms: 0.9696E-01   max: 0.3369E+00   D at   77  1   RLX: 0.468
       a =  9.500      CL =  1.3851
      Cm = -0.0825     CD =  0.09222   =>   CDf =  0.00365    CDp =  0.08857

 Side 1  free  transition at x/c =  0.0175   24
 Side 2 forced transition at x/c =  0.9998   80

   2   rms: 0.5800E-01   max: 0.2286E+00   D at   82  1
       a =  9.500      CL =  1.3596
      Cm = -0.0853     CD =  0.10082   =>   CDf =  0.00338    CDp =  0.09743

 Side 1  free  transition at x/c =  0.0178   24
 Side 2 forced transition at x/c =  0.9998   80

   3   rms: 0.1056E-01   max: 0.6678E-01   D at   78  1
       a =  9.500      CL =  1.3555
      Cm = -0.0857     CD =  0.09910   =>   CDf =  0.00314    CDp =  0.09596

 Side 1  free  transition at x/c =  0.0178   24
 Side 2 forced transition at x/c =  0.9998   80

   4   rms: 0.1542E-02   max: -.6596E-02   D at   78  1
       a =  9.500      CL =  1.3565
      Cm = -0.0857     CD =  0.09894   =>   CDf =  0.00318    CDp =  0.09577

 Side 1  free  transition at x/c =  0.0178   24
 Side 2 forced transition at x/c =  0.9998   80

   5   rms: 0.2509E-03   max: 0.7765E-03   D at   74  1
       a =  9.500      CL =  1.3563
      Cm = -0.0857     CD =  0.09896   =>   CDf =  0.00317    CDp =  0.09580

 Side 1  free  transition at x/c =  0.0178   24
 Side 2 forced transition at x/c =  0.9998   80

   6   rms: 0.2865E-04   max: 0.8290E-04   T at   75  1
       a =  9.500      CL =  1.3563
      Cm = -0.0857     CD =  0.09896   =>   CDf =  0.00317    CDp =  0.09579
 Calculating wake trajectory ...
 Calculating source influence matrix ...

 Solving BL system ...

 Side 1  free  transition at x/c =  0.0178   24
 Side 2 forced transition at x/c =  0.9998   80

   1   rms: 0.1141E+00   max: 0.3820E+00   D at   69  1   RLX: 0.428
       a = 10.000      CL =  1.3395
      Cm = -0.0896     CD =  0.10814   =>   CDf =  0.00317    CDp =  0.10496

 Side 1  free  transition at x/c =  0.0180   24
 Side 2 forced transition at x/c =  0.9998   80

   2   rms: 0.7252E-01   max: 0.2765E+00   D at   70  1
       a = 10.000      CL =  1.3162
      Cm = -0.0970     CD =  0.12066   =>   CDf =  0.00296    CDp =  0.11771

 Side 1  free  transition at x/c =  0.0183   24
 Side 2 forced transition at x/c =  0.9998   80

   3   rms: 0.1479E-01   max: 0.6642E-01   D at   65  1
       a = 10.000      CL =  1.3101
      Cm = -0.0959     CD =  0.11637   =>   CDf =  0.00272    CDp =  0.11365

 Side 1  free  transition at x/c =  0.0183   24
 Side 2 forced transition at x/c =  0.9998   80

   4   rms: 0.2229E-02   max: -.7292E-02   D at   65  1
       a = 10.000      CL =  1.3113
      Cm = -0.0959     CD =  0.11624   =>   CDf =  0.00279    CDp =  0.11345

 Side 1  free  transition at x/c =  0.0183   24
 Side 2 forced transition at x/c =  0.9998   80

   5   rms: 0.3174E-03   max: 0.1375E-02   D at   62  1
       a = 10.000      CL =  1.3112
      Cm = -0.0959     CD =  0.11637   =>   CDf =  0.00278    CDp =  0.11359

 Side 1  free  transition at x/c =  0.0183   24
 Side 2 forced transition at x/c =  0.9998   80

   6   rms: 0.4846E-04   max: 0.2227E-03   D at  100  2
       a = 10.000      CL =  1.3112
      Cm = -0.0959     CD =  0.11635   =>   CDf =  0.00278    CDp =  0.11357

.OPERv   c>  
 Solving BL system ...

 Side 1  free  transition at x/c =  0.0183   24
 Side 2 forced transition at x/c =  0.9998   80

   1   rms: 0.8587E-05   max: 0.2574E-04   D at   48  1
       a = 10.000      CL =  1.3112
      Cm = -0.0959     CD =  0.11635   =>   CDf =  0.00278    CDp =  0.11357

.OPERv   c>  
 Flap hinge x,y :  0.0000  0.0000
                                           2  2
 Hinge moment/span = 0.422640  x  1/2 rho V  c 
                                           2   
 x-Force     /span = -.137705  x  1/2 rho V  c 
                                           2   
 y-Force     /span = 1.306851  x  1/2 rho V  c 


.OPERv   c>  
 Solving BL system ...

 Side 1  free  transition at x/c =  0.0183   24
 Side 2 forced transition at x/c =  0.9998   80

   1   rms: 0.1222E-05   max: -.4027E-05   D at   33  1
       a = 10.000      CL =  1.3112
      Cm = -0.0959     CD =  0.11635   =>   CDf =  0.00278    CDp =  0.11357
 Calculating wake trajectory ...
 Calculating source influence matrix ...

 Solving BL system ...

 Side 1  free  transition at x/c =  0.0183   24
 Side 2 forced transition at x/c =  0.9998   80

   1   rms: 0.1294E+00   max: 0.4486E+00   D at   57  1   RLX: 0.396
       a = 10.500      CL =  1.2979
      Cm = -0.1021     CD =  0.12743   =>   CDf =  0.00279    CDp =  0.12465

 Side 1  free  transition at x/c =  0.0185   24
 Side 2 forced transition at x/c =  0.9998   80

   2   rms: 0.8182E-01   max: 0.3121E+00   D at   59  1
       a = 10.500      CL =  1.2752
      Cm = -0.1119     CD =  0.14319   =>   CDf =  0.00262    CDp =  0.14057

 Side 1  free  transition at x/c =  0.0189   24
 Side 2 forced transition at x/c =  0.9998   80

   3   rms: 0.1981E-01   max: -.8250E-01   D at   43  1
       a = 10.500      CL =  1.2677
      Cm = -0.1094     CD =  0.13560   =>   CDf =  0.00245    CDp =  0.13315

 Side 1  free  transition at x/c =  0.0189   24
 Side 2 forced transition at x/c =  0.9998   80

   4   rms: 0.3158E-02   max: -.1036E-01   D at   99  2
       a = 10.500      CL =  1.2697
      Cm = -0.1095     CD =  0.13598   =>   CDf =  0.00252    CDp =  0.13346

 Side 1  free  transition at x/c =  0.0189   24
 Side 2 forced transition at x/c =  0.9998   80

   5   rms: 0.4275E-03   max: 0.1556E-02   D at   52  1
       a = 10.500      CL =  1.2695
      Cm = -0.1095     CD =  0.13616   =>   CDf =  0.00251    CDp =  0.13365

 Side 1  free  transition at x/c =  0.0189   24
 Side 2 forced transition at x/c =  0.9998   80

   6   rms: 0.8164E-04   max: -.2775E-03   D at   48  1
       a = 10.500      CL =  1.2695
      Cm = -0.1095     CD =  0.13612   =>   CDf =  0.00251    CDp =  0.13361
 Calculating wake trajectory ...
 Calculating source influence matrix ...

 Solving BL system ...

 Side 1  free  transition at x/c =  0.0189   24
 Side 2 forced transition at x/c =  0.9998   80

   1   rms: 0.1390E+00   max: 0.4887E+00   D at   49  1   RLX: 0.370
       a = 11.000      CL =  1.2594
      Cm = -0.1162     CD =  0.14819   =>   CDf =  0.00251    CDp =  0.14568

 Side 1  free  transition at x/c =  0.0192   24
 Side 2 forced transition at x/c =  0.9998   80

   2   rms: 0.6006E-01   max: -.2812E+00   T at   24  1
       a = 11.000      CL =  1.2442
      Cm = -0.1217     CD =  0.16027   =>   CDf =  0.00241    CDp =  0.15786

 Side 1  free  transition at x/c =  0.0197   25
 Side 2 forced transition at x/c =  0.9998   80

   3   rms: 0.3883E+00   max: 0.1417E+01   D at   55  1
       a = 11.000      CL =  1.4119
      Cm = -0.0787     CD =  0.11923   =>   CDf =  0.00335    CDp =  0.11588

 MRCHDU: Convergence failed at  29  side 1    Res =  0.2135E+02
 MRCHDU: Convergence failed at  30  side 1    Res =  0.1653E+01
 MRCHDU: Convergence failed at  31  side 1    Res =  0.1379E+03
 MRCHDU: Convergence failed at  32  side 1    Res =  0.2237E+03
 MRCHDU: Convergence failed at  33  side 1    Res =  0.1760E+03
 MRCHDU: Convergence failed at  34  side 1    Res =  0.1769E+03
 MRCHDU: Convergence failed at  35  side 1    Res =  0.1998E+03
 MRCHDU: Convergence failed at  36  side 1    Res =  0.1188E+03
 MRCHDU: Convergence failed at  37  side 1    Res =  0.1321E+03
 MRCHDU: Convergence failed at  38  side 1    Res =  0.1442E+03
 MRCHDU: Convergence failed at  39  side 1    Res =  0.1547E+03
 MRCHDU: Convergence failed at  40  side 1    Res =  0.1838E+03
 MRCHDU: Convergence failed at  41  side 1    Res =  0.2004E+03
 MRCHDU: Convergence failed at  42  side 1    Res =  0.2190E+03
 MRCHDU: Convergence failed at  43  side 1    Res =  0.2405E+03
 MRCHDU: Convergence failed at  44  side 1    Res =  0.2656E+03
 MRCHDU: Convergence failed at  45  side 1    Res =  0.2950E+03
 MRCHDU: Convergence failed at  46  side 1    Res =  0.3317E+03
 MRCHDU: Convergence failed at  47  side 1    Res =  0.2324E+03
 MRCHDU: Convergence failed at  48  side 1    Res =  0.2450E+03
 MRCHDU: Convergence failed at  49  side 1    Res =  0.2806E+03
 MRCHDU: Convergence failed at  50  side 1    Res =  0.3271E+03
 MRCHDU: Convergence failed at  51  side 1    Res =  0.3733E+03
 MRCHDU: Convergence failed at  52  side 1    Res =  0.4248E+03
 MRCHDU: Convergence failed at  53  side 1    Res =  0.4961E+03
 MRCHDU: Convergence failed at  54  side 1    Res =  0.4285E+03
 MRCHDU: Convergence failed at  55  side 1    Res =  0.3786E+03
 MRCHDU: Convergence failed at  56  side 1    Res =  0.7224E+04
 MRCHDU: Convergence failed at  57  side 1    Res =  0.1297E+05
 MRCHDU: Convergence failed at  58  side 1    Res =  0.1235E+05
 MRCHDU: Convergence failed at  59  side 1    Res =  0.2157E+04
 MRCHDU: Convergence failed at  60  side 1    Res =  0.1522E+04
 MRCHDU: Convergence failed at  61  side 1    Res =  0.1235E+04
 MRCHDU: Convergence failed at  62  side 1    Res =  0.1046E+04
 MRCHDU: Convergence failed at  63  side 1    Res =  0.9790E+03
 MRCHDU: Convergence failed at  64  side 1    Res =  0.1455E+04
 MRCHDU: Convergence failed at  65  side 1    Res =  0.1134E+04
 MRCHDU: Convergence failed at  66  side 1    Res =  0.9711E+03
 MRCHDU: Convergence failed at  67  side 1    Res =  0.8678E+03
 MRCHDU: Convergence failed at  68  side 1    Res =  0.8018E+03
 MRCHDU: Convergence failed at  69  side 1    Res =  0.7515E+03
 MRCHDU: Convergence failed at  70  side 1    Res =  0.7135E+03
 MRCHDU: Convergence failed at  71  side 1    Res =  0.6828E+03
 MRCHDU: Convergence failed at  72  side 1    Res =  0.6529E+03
 MRCHDU: Convergence failed at  73  side 1    Res =  0.6250E+03
 MRCHDU: Convergence failed at  74  side 1    Res =  0.7626E+03
 MRCHDU: Convergence failed at  75  side 1    Res =  0.7016E+03
 MRCHDU: Convergence failed at  76  side 1    Res =  0.6124E+03
 MRCHDU: Convergence failed at  77  side 1    Res =  0.6036E+03
 MRCHDU: Convergence failed at  78  side 1    Res =  0.5935E+03
 MRCHDU: Convergence failed at  79  side 1    Res =  0.5536E+03
 MRCHDU: Convergence failed at  80  side 1    Res =  0.5548E+03
 MRCHDU: Convergence failed at  81  side 1    Res =  0.5509E+03
 MRCHDU: Convergence failed at  82  side 1    Res =  0.5451E+03
 MRCHDU: Convergence failed at  83  side 1    Res =  0.5382E+03
 MRCHDU: Convergence failed at  84  side 1    Res =  0.5319E+03
 MRCHDU: Convergence failed at  85  side 1    Res =  0.5262E+03
 MRCHDU: Convergence failed at  86  side 1    Res =  0.6048E+03
 MRCHDU: Convergence failed at  87  side 1    Res =  0.5787E+03
 MRCHDU: Convergence failed at  88  side 1    Res =  0.5213E+03
 MRCHDU: Convergence failed at  89  side 1    Res =  0.4182E+03
 MRCHDU: Convergence failed at  90  side 1    Res =  0.5246E+03
 MRCHDU: Convergence failed at  91  side 1    Res =  0.5162E+03
 MRCHDU: Convergence failed at  92  side 1    Res =  0.5099E+03
 MRCHDU: Convergence failed at  93  side 1    Res =  0.5052E+03
 MRCHDU: Convergence failed at  94  side 1    Res =  0.5643E+03
 MRCHDU: Convergence failed at  95  side 1    Res =  0.5468E+03
 MRCHDU: Convergence failed at  96  side 1    Res =  0.5100E+03
 MRCHDU: Convergence failed at  97  side 1    Res =  0.5078E+03
 MRCHDU: Convergence failed at  98  side 1    Res =  0.5071E+03
 MRCHDU: Convergence failed at  99  side 1    Res =  0.5090E+03
 MRCHDU: Convergence failed at 100  side 1    Res =  0.5116E+03
 MRCHDU: Convergence failed at 101  side 1    Res =  0.5113E+03
 MRCHDU: Convergence failed at 102  side 1    Res =  0.5046E+03
 MRCHDU: Convergence failed at 103  side 1    Res =  0.4887E+03
 MRCHDU: Convergence failed at 104  side 1    Res =  0.4623E+03
 MRCHDU: Convergence failed at 105  side 1    Res =  0.4135E+03
 MRCHDU: Convergence failed at  93  side 2    Res =  0.4625E+01
 MRCHDU: Convergence failed at  94  side 2    Res =  0.8789E+01
 MRCHDU: Convergence failed at  95  side 2    Res =  0.5003E+01
 MRCHDU: Convergence failed at  96  side 2    Res =  0.1125E+02
 MRCHDU: Convergence failed at  97  side 2    Res =  0.1439E+01
 MRCHDU: Convergence failed at  98  side 2    Res =  0.8698E+02
 MRCHDU: Convergence failed at  99  side 2    Res =  0.1445E+02
 MRCHDU: Convergence failed at 100  side 2    Res =  0.4602E+01
 MRCHDU: Convergence failed at 101  side 2    Res =  0.6645E+02
 Side 1  free  transition at x/c =  0.0638   30
 Side 2 forced transition at x/c =  0.9998   80

   4   rms: 0.3760E+01   max: 0.2584E+02   D at   91  2   RLX: 0.058
       a = 11.000      CL =  5.3958
      Cm = -1.3205     CD =  0.00959   =>   CDf =  0.00039    CDp =  0.00921

 MRCHDU: Convergence failed at  91  side 2    Res =  0.6502E+01
 Side 1  free  transition at x/c =  0.0642   30
 Side 2 forced transition at x/c =  0.9998   80

   5   rms: 0.3076E+01   max: 0.5331E+02   T at   30  1   RLX: 0.028
       a = 11.000      CL =  4.4639
      Cm = -1.0020     CD =  0.14100   =>   CDf =  0.00158    CDp =  0.13942

 Side 1  free  transition at x/c =  0.0596   30
 Side 2 forced transition at x/c =  0.9998   80

   6   rms: 0.2592E+01   max: 0.1959E+02   T at   30  1   RLX: 0.077
       a = 11.000      CL =  4.3641
      Cm = -0.9523     CD =  0.14963   =>   CDf =  0.00114    CDp =  0.14848

 MRCHDU: Convergence failed at  31  side 1    Res =  0.1359E+02
 Side 1  free  transition at x/c =  0.0584   30
 Side 2 forced transition at x/c =  0.9998   79
 idif Ue xi dudx           1  0.12612861      8.28313828E-03   15.227153    
 Uenew xinew           2  2.10565305E-03  1.38282776E-04

   7   rms: 0.1698E+01   max: 0.1007E+02   C at   79  2   RLX: 0.106
       a = 11.000      CL =  4.5259
      Cm = -0.9994     CD =  0.17639   =>   CDf =  0.00200    CDp =  0.17440

 Side 1  free  transition at x/c =  0.0668   30
 Side 2 forced transition at x/c =  0.9998   80

   8   rms: 0.2043E+01   max: -.2067E+02   T at    2  2   RLX: 0.024
       a = 11.000      CL =  4.5325
      Cm = -0.9934     CD =  0.29106   =>   CDf =  0.00183    CDp =  0.28923

 Side 1  free  transition at x/c =  0.0668   30
 Side 2 forced transition at x/c =  0.9998   80

   9   rms: 0.1697E+01   max: 0.1734E+02   C at   80  2   RLX: 0.041
       a = 11.000      CL =  4.4497
      Cm = -0.9711     CD =  0.26057   =>   CDf =  0.00190    CDp =  0.25867

 Side 1  free  transition at x/c =  0.0670   30
 Side 2 forced transition at x/c =  0.9998   80

  10   rms: 0.1571E+01   max: 0.1511E+02   C at   80  2   RLX: 0.039
       a = 11.000      CL =  4.3757
      Cm = -0.9501     CD =  0.27715   =>   CDf =  0.00201    CDp =  0.27514

 Side 1  free  transition at x/c =  0.0667   30
 Side 2 forced transition at x/c =  0.9998   80

  11   rms: 0.1554E+01   max: -.1457E+02   D at  104  2   RLX: 0.034
       a = 11.000      CL =  4.3126
      Cm = -0.9317     CD =  0.28097   =>   CDf =  0.00211    CDp =  0.27886

 MRCHDU: Convergence failed at 104  side 2    Res =  0.1489E+00
 Side 1  free  transition at x/c =  0.0664   30
 Side 2 forced transition at x/c =  0.9998   80

  12   rms: 0.2268E+01   max: 0.1323E+02   C at   80  2   RLX: 0.092
       a = 11.000      CL =  3.7820
      Cm = -0.8135     CD =  0.59344   =>   CDf =  0.00219    CDp =  0.59125

 Side 1  free  transition at x/c =  0.0533   29
 Side 2 forced transition at x/c =  0.9998   80
 idif Ue xi dudx           1  0.11884160      6.70039654E-03   17.736504    
 Uenew xinew           2  2.10801302E-03  1.18851662E-04

  13   rms: 0.2186E+01   max: -.1428E+02   T at   29  1   RLX: 0.035
       a = 11.000      CL =  3.7060
      Cm = -0.8084     CD =  1.16283   =>   CDf =  0.00264    CDp =  1.16019

 Side 1  free  transition at x/c =  0.0503   28
 Side 2 forced transition at x/c =  0.9998   81

  14   rms: 0.3496E+01   max: -.4451E+02   D at    2  2   RLX: 0.011
       a = 11.000      CL =  3.7294
      Cm = -0.8244     CD =  1.41710   =>   CDf =  0.00233    CDp =  1.41476

 Side 1  free  transition at x/c =  0.0506   28
 Side 2 forced transition at x/c =  0.9998   81

  15   rms: 0.2160E+01   max: 0.2445E+02   T at   28  1   RLX: 0.061
       a = 11.000      CL =  3.4834
      Cm = -0.7720     CD =  1.64540   =>   CDf =  0.00235    CDp =  1.64305
 VISCAL:  Convergence failed
 Calculating wake trajectory ...
 Calculating source influence matrix ...

 Solving BL system ...

 Side 1  free  transition at x/c =  0.0302   25
 Side 2 forced transition at x/c =  0.9998   81

   1   rms: 0.1637E+01   max: 0.1984E+02   C at   81  2   RLX: 0.059
       a = 11.500      CL =  3.2158
      Cm = -0.7103     CD =  2.10701   =>   CDf =  0.00245    CDp =  2.10456

 Side 1  free  transition at x/c =  0.0277   25
 Side 2 forced transition at x/c =  0.9998   81

   2   rms: 0.1492E+01   max: 0.2034E+02   C at   81  2   RLX: 0.074
       a = 11.500      CL =  3.0356
      Cm = -0.6685     CD =  2.10930   =>   CDf =  0.00246    CDp =  2.10683

 MRCHDU: Convergence failed at 101  side 1    Res =  0.3747E-01
 MRCHDU: Convergence failed at 102  side 1    Res =  0.2668E-01
 MRCHDU: Convergence failed at 103  side 1    Res =  0.1548E-01
 MRCHDU: Convergence failed at 104  side 1    Res =  0.7079E-02
 Side 1  free  transition at x/c =  0.0273   25
 Side 2 forced transition at x/c =  0.9998   81

   3   rms: 0.1992E+01   max: 0.1516E+02   C at   81  2   RLX: 0.046
       a = 11.500      CL =  2.9383
      Cm = -0.6449     CD =  2.28740   =>   CDf =  0.00248    CDp =  2.28492

 MRCHDU: Convergence failed at 101  side 1    Res =  0.1977E-01
 MRCHDU: Convergence failed at 102  side 1    Res =  0.3682E-01
 MRCHDU: Convergence failed at 103  side 1    Res =  0.3935E-01
 MRCHDU: Convergence failed at 104  side 1    Res =  0.2609E+01
 Side 1  free  transition at x/c =  0.0271   25
 Side 2 forced transition at x/c =  0.9998   81
 idif Ue xi dudx           1  0.10759324      5.26094437E-03   20.451317    
 Uenew xinew           2  5.65612980E-04  2.76565552E-05

   4   rms: 0.1808E+01   max: 0.1736E+02   C at   81  2   RLX: 0.073
       a = 11.500      CL =  2.7269
      Cm = -0.5989     CD =  2.59793   =>   CDf =  0.00281    CDp =  2.59512

 MRCHDU: Convergence failed at  96  side 1    Res =  0.1282E+00
 MRCHDU: Convergence failed at 100  side 1    Res =  0.3644E-01
 MRCHDU: Convergence failed at 101  side 1    Res =  0.2996E-01
 MRCHDU: Convergence failed at 102  side 1    Res =  0.2719E-01
 MRCHDU: Convergence failed at 103  side 1    Res =  0.2408E-01
 Side 1  free  transition at x/c =  0.0265   24
 Side 2 forced transition at x/c =  0.9998   82

   5   rms: 0.7681E+01   max: 0.7778E+02   D at    2  2   RLX: 0.014
       a = 11.500      CL =  2.7391
      Cm = -0.6006     CD =  2.89578   =>   CDf =  0.00217    CDp =  2.89360

 MRCHDU: Convergence failed at 104  side 1    Res =  0.3469E+00
 Side 1  free  transition at x/c =  0.0268   25
 Side 2 forced transition at x/c =  0.9998   81

   6   rms: 0.1433E+03   max: 0.8664E+03   C at  104  1   RLX: 0.002
       a = 11.500      CL =  2.7448
      Cm = -0.6032     CD =  0.59991   =>   CDf =  0.00250    CDp =  0.59742

 Side 1  free  transition at x/c =  0.0268   25
 Side 2 forced transition at x/c =  0.9998   81

   7   rms: 0.1798E+03   max: 0.1058E+04   C at  104  1   RLX: 0.001
       a = 11.500      CL =  2.7404
      Cm = -0.6022     CD =  0.56353   =>   CDf =  0.00250    CDp =  0.56103

 Side 1  free  transition at x/c =  0.0268   25
 Side 2 forced transition at x/c =  0.9998   81

   8   rms: 0.4030E+03   max: -.2366E+04   C at  104  1   RLX: 0.000
       a = 11.500      CL =  2.7404
      Cm = -0.6022     CD =  0.56638   =>   CDf =  0.00250    CDp =  0.56389

 Side 1  free  transition at x/c =  0.0268   25
 Side 2 forced transition at x/c =  0.9998   81

   9   rms: 0.3418E+03   max: 0.2008E+04   C at  104  1   RLX: 0.001
       a = 11.500      CL =  2.7377
      Cm = -0.6015     CD =  0.56470   =>   CDf =  0.00250    CDp =  0.56220

 Side 1  free  transition at x/c =  0.0268   25
 Side 2 forced transition at x/c =  0.9998   81

  10   rms: 0.5560E+02   max: -.3237E+03   C at  104  1   RLX: 0.002
       a = 11.500      CL =  2.7344
      Cm = -0.6008     CD =  0.56262   =>   CDf =  0.00250    CDp =  0.56012

 Side 1  free  transition at x/c =  0.0268   25
 Side 2 forced transition at x/c =  0.9998   81

  11   rms: 0.1409E+03   max: -.8253E+03   C at  104  1   RLX: 0.001
       a = 11.500      CL =  2.7331
      Cm = -0.6004     CD =  0.56235   =>   CDf =  0.00250    CDp =  0.55985

 Side 1  free  transition at x/c =  0.0268   25
 Side 2 forced transition at x/c =  0.9998   81

  12   rms: 0.4407E+03   max: -.2613E+04   C at  104  1   RLX: 0.000
       a = 11.500      CL =  2.7327
      Cm = -0.6003     CD =  0.56225   =>   CDf =  0.00250    CDp =  0.55975

 Side 1  free  transition at x/c =  0.0268   25
 Side 2 forced transition at x/c =  0.9998   81

  13   rms: 0.7934E+03   max: -.4802E+04   C at  104  1   RLX: 0.000
       a = 11.500      CL =  2.7325
      Cm = -0.6003     CD =  0.56209   =>   CDf =  0.00250    CDp =  0.55959

 Side 1  free  transition at x/c =  0.0268   25
 Side 2 forced transition at x/c =  0.9998   81

  14   rms: 0.1750E+04   max: -.1098E+05   C at  104  1   RLX: 0.000
       a = 11.500      CL =  2.7324
      Cm = -0.6002     CD =  0.56199   =>   CDf =  0.00250    CDp =  0.55949

 Side 1  free  transition at x/c =  0.0268   25
 Side 2 forced transition at x/c =  0.9998   81

  15   rms: 0.5489E+04   max: -.3652E+05   C at  104  1   RLX: 0.000
       a = 11.500      CL =  2.7324
      Cm = -0.6002     CD =  0.56188   =>   CDf =  0.00250    CDp =  0.55939
 VISCAL:  Convergence failed
 Calculating wake trajectory ...
 Calculating source influence matrix ...

 Solving BL system ...

 Side 1  free  transition at x/c =  0.0268   25
 Side 2 forced transition at x/c =  0.9998   81

   1   rms: 0.7344E+05   max: 0.5370E+06   C at  104  1   RLX: 0.000
       a = 12.000      CL =  2.7260
      Cm = -0.6002     CD =  0.56209   =>   CDf =  0.00250    CDp =  0.55959

 Side 1  free  transition at x/c =  0.0268   25
 Side 2 forced transition at x/c =  0.9998   81

   2   rms: 0.1635E+04   max: -.1027E+05   C at  104  1   RLX: 0.000
       a = 12.000      CL =  2.7260
      Cm = -0.6002     CD =  0.56187   =>   CDf =  0.00250    CDp =  0.55938

 Side 1  free  transition at x/c =  0.0268   25
 Side 2 forced transition at x/c =  0.9998   81

   3   rms: 0.5180E+04   max: -.3459E+05   C at  104  1   RLX: 0.000
       a = 12.000      CL =  2.7260
      Cm = -0.6002     CD =  0.56178   =>   CDf =  0.00250    CDp =  0.55928

 Side 1  free  transition at x/c =  0.0268   25
 Side 2 forced transition at x/c =  0.9998   81

   4   rms: 0.2135E+05   max: -.1570E+06   C at  104  1   RLX: 0.000
       a = 12.000      CL =  2.7260
      Cm = -0.6002     CD =  0.56168   =>   CDf =  0.00250    CDp =  0.55919

 Side 1  free  transition at x/c =  0.0268   25
 Side 2 forced transition at x/c =  0.9998   81

   5   rms: 0.1187E+05   max: 0.1007E+06   C at  104  1   RLX: 0.000
       a = 12.000      CL =  2.7259
      Cm = -0.6002     CD =  0.56187   =>   CDf =  0.00250    CDp =  0.55937

 Side 1  free  transition at x/c =  0.0268   25
 Side 2 forced transition at x/c =  0.9998   81

   6   rms: 0.3332E+04   max: -.2218E+05   C at  104  1   RLX: 0.000
       a = 12.000      CL =  2.7258
      Cm = -0.6002     CD =  0.56172   =>   CDf =  0.00250    CDp =  0.55922

 Side 1  free  transition at x/c =  0.0268   25
 Side 2 forced transition at x/c =  0.9998   81

   7   rms: 0.1164E+05   max: -.8518E+05   C at  104  1   RLX: 0.000
       a = 12.000      CL =  2.7259
      Cm = -0.6002     CD =  0.56163   =>   CDf =  0.00250    CDp =  0.55913

 Side 1  free  transition at x/c =  0.0268   25
 Side 2 forced transition at x/c =  0.9998   81

   8   rms: 0.2852E+05   max: 0.2405E+06   C at  104  1   RLX: 0.000
       a = 12.000      CL =  2.7258
      Cm = -0.6002     CD =  0.56181   =>   CDf =  0.00250    CDp =  0.55931

 Side 1  free  transition at x/c =  0.0268   25
 Side 2 forced transition at x/c =  0.9998   81

   9   rms: 0.3332E+04   max: -.2212E+05   C at  104  1   RLX: 0.000
       a = 12.000      CL =  2.7258
      Cm = -0.6001     CD =  0.56165   =>   CDf =  0.00250    CDp =  0.55915

 Side 1  free  transition at x/c =  0.0268   25
 Side 2 forced transition at x/c =  0.9998   81

  10   rms: 0.7140E+04   max: -.5201E+05   C at  104  1   RLX: 0.000
       a = 12.000      CL =  2.7258
      Cm = -0.6001     CD =  0.56156   =>   CDf =  0.00250    CDp =  0.55907

 Side 1  free  transition at x/c =  0.0268   25
 Side 2 forced transition at x/c =  0.9998   81

  11   rms: 0.2024E+06   max: -.1696E+07   C at  104  1   RLX: 0.000
       a = 12.000      CL =  2.7258
      Cm = -0.6002     CD =  0.56149   =>   CDf =  0.00250    CDp =  0.55900

 Side 1  free  transition at x/c =  0.0268   25
 Side 2 forced transition at x/c =  0.9998   81

  12   rms: 0.9936E+04   max: 0.1011E+06   C at  104  1   RLX: 0.000
       a = 12.000      CL =  2.7257
      Cm = -0.6001     CD =  0.56165   =>   CDf =  0.00250    CDp =  0.55915

 Side 1  free  transition at x/c =  0.0268   25
 Side 2 forced transition at x/c =  0.9998   81

  13   rms: 0.5166E+04   max: -.3719E+05   C at  104  1   RLX: 0.000
       a = 12.000      CL =  2.7257
      Cm = -0.6001     CD =  0.56153   =>   CDf =  0.00250    CDp =  0.55903

 Side 1  free  transition at x/c =  0.0268   25
 Side 2 forced transition at x/c =  0.9998   81

  14   rms: 0.2437E+05   max: -.2007E+06   C at  104  1   RLX: 0.000
       a = 12.000      CL =  2.7257
      Cm = -0.6001     CD =  0.56146   =>   CDf =  0.00250    CDp =  0.55896

 Side 1  free  transition at x/c =  0.0268   25
 Side 2 forced transition at x/c =  0.9998   81

  15   rms: 0.1578E+05   max: 0.1569E+06   C at  104  1   RLX: 0.000
       a = 12.000      CL =  2.7256
      Cm = -0.6001     CD =  0.56162   =>   CDf =  0.00250    CDp =  0.55912
 VISCAL:  Convergence failed

.OPERv   c>  
 Solving BL system ...

 Side 1  free  transition at x/c =  0.0268   25
 Side 2 forced transition at x/c =  0.9998   81

   1   rms: 0.4142E+04   max: -.2951E+05   C at  104  1   RLX: 0.000
       a = 12.000      CL =  2.7256
      Cm = -0.6001     CD =  0.56149   =>   CDf =  0.00250    CDp =  0.55899

 Side 1  free  transition at x/c =  0.0268   25
 Side 2 forced transition at x/c =  0.9998   81

   2   rms: 0.1032E+05   max: -.8366E+05   C at  104  1   RLX: 0.000
       a = 12.000      CL =  2.7256
      Cm = -0.6001     CD =  0.56142   =>   CDf =  0.00250    CDp =  0.55893

 Side 1  free  transition at x/c =  0.0268   25
 Side 2 forced transition at x/c =  0.9998   81

   3   rms: 0.3179E+05   max: 0.3095E+06   C at  104  1   RLX: 0.000
       a = 12.000      CL =  2.7255
      Cm = -0.6001     CD =  0.56158   =>   CDf =  0.00250    CDp =  0.55908

 Side 1  free  transition at x/c =  0.0268   25
 Side 2 forced transition at x/c =  0.9998   81

   4   rms: 0.2523E+04   max: -.1781E+05   C at  104  1   RLX: 0.000
       a = 12.000      CL =  2.7255
      Cm = -0.6001     CD =  0.56145   =>   CDf =  0.00250    CDp =  0.55896

 Side 1  free  transition at x/c =  0.0268   25
 Side 2 forced transition at x/c =  0.9998   81

   5   rms: 0.7034E+04   max: -.5626E+05   C at  104  1   RLX: 0.000
       a = 12.000      CL =  2.7255
      Cm = -0.6001     CD =  0.56138   =>   CDf =  0.00250    CDp =  0.55889

 Side 1  free  transition at x/c =  0.0268   25
 Side 2 forced transition at x/c =  0.9998   81

   6   rms: 0.6525E+05   max: -.6236E+06   C at  104  1   RLX: 0.000
       a = 12.000      CL =  2.7255
      Cm = -0.6001     CD =  0.56132   =>   CDf =  0.00250    CDp =  0.55882

 Side 1  free  transition at x/c =  0.0268   25
 Side 2 forced transition at x/c =  0.9998   81

   7   rms: 0.9737E+04   max: 0.1171E+06   C at  104  1   RLX: 0.000
       a = 12.000      CL =  2.7254
      Cm = -0.6001     CD =  0.56146   =>   CDf =  0.00250    CDp =  0.55896

 Side 1  free  transition at x/c =  0.0268   25
 Side 2 forced transition at x/c =  0.9998   81

   8   rms: 0.5277E+04   max: -.4129E+05   C at  104  1   RLX: 0.000
       a = 12.000      CL =  2.7254
      Cm = -0.6001     CD =  0.56136   =>   CDf =  0.00250    CDp =  0.55886

 Side 1  free  transition at x/c =  0.0268   25
 Side 2 forced transition at x/c =  0.9998   81

   9   rms: 0.1714E+05   max: -.1591E+06   C at  104  1   RLX: 0.000
       a = 12.000      CL =  2.7254
      Cm = -0.6001     CD =  0.56130   =>   CDf =  0.00250    CDp =  0.55880

 Side 1  free  transition at x/c =  0.0268   25
 Side 2 forced transition at x/c =  0.9998   81

  10   rms: 0.1729E+05   max: 0.2005E+06   C at  104  1   RLX: 0.000
       a = 12.000      CL =  2.7254
      Cm = -0.6001     CD =  0.56143   =>   CDf =  0.00250    CDp =  0.55894
 VISCAL:  Convergence failed
 Type "!" to continue iterating

.OPERv   c>  
 Flap hinge x,y :  0.0000  0.0000
                                           2  2
 Hinge moment/span = 1.304814  x  1/2 rho V  c 
                                           2   
 x-Force     /span = 0.155140  x  1/2 rho V  c 
                                           2   
 y-Force     /span = 2.818979  x  1/2 rho V  c 


.OPERv   c>   BLs will be initialized on next point

.OPERv   c>   Calculating wake trajectory ...
 Calculating source influence matrix ...

 Solving BL system ...

 Initializing BL ...
    side            1  ...
 MRCHUE: Inverse mode at  42     Hk =   4.145
 MRCHUE: Inverse mode at  43     Hk =   4.643
 MRCHUE: Inverse mode at  44     Hk =   5.132
 MRCHUE: Inverse mode at  45     Hk =   5.613
 MRCHUE: Inverse mode at  46     Hk =   6.087
 MRCHUE: Inverse mode at  47     Hk =   5.259
 MRCHUE: Inverse mode at  48     Hk =   3.234
 MRCHUE: Inverse mode at  91     Hk =   2.500
 MRCHUE: Inverse mode at  92     Hk =   2.500
 MRCHUE: Inverse mode at  93     Hk =   2.500
 MRCHUE: Inverse mode at  94     Hk =   2.500
 MRCHUE: Inverse mode at  95     Hk =   2.500
 MRCHUE: Inverse mode at  96     Hk =   2.500
 MRCHUE: Inverse mode at  97     Hk =   2.500
 MRCHUE: Inverse mode at  98     Hk =   2.500
 MRCHUE: Convergence failed at  99  side 1    Res =  0.3694E+01
 MRCHUE: Inverse mode at 100     Hk =   2.500
    side            2  ...
 MRCHUE: Inverse mode at  56     Hk =   3.800
 MRCHUE: Inverse mode at  57     Hk =   4.106
 MRCHUE: Inverse mode at  58     Hk =   4.406
 MRCHUE: Inverse mode at  59     Hk =   4.701
 MRCHUE: Inverse mode at  60     Hk =   4.992
 MRCHUE: Inverse mode at  61     Hk =   5.279
 MRCHUE: Inverse mode at  62     Hk =   5.562
 MRCHUE: Inverse mode at  63     Hk =   5.842
 MRCHUE: Convergence failed at  64  side 2    Res =  0.2791E+01
 MRCHUE: Inverse mode at  65     Hk =   6.116
 MRCHUE: Convergence failed at  66  side 2    Res =  0.5251E+01
 MRCHUE: Inverse mode at  67     Hk =   6.235
 MRCHUE: Inverse mode at  68     Hk =   6.294
 MRCHUE: Inverse mode at  69     Hk =   6.384
 MRCHUE: Inverse mode at  70     Hk =   6.563
 MRCHUE: Inverse mode at  71     Hk =   6.828
 MRCHUE: Inverse mode at  72     Hk =   7.090
 MRCHUE: Inverse mode at  73     Hk =   7.350
 MRCHUE: Inverse mode at  74     Hk =   7.607
 MRCHUE: Inverse mode at  75     Hk =   7.862
 MRCHUE: Inverse mode at  76     Hk =   8.116
 MRCHUE: Inverse mode at  77     Hk =   8.367
 MRCHUE: Inverse mode at  78     Hk =   8.617
 MRCHUE: Inverse mode at  79     Hk =   8.865
 MRCHUE: Inverse mode at  80     Hk =   9.111
 MRCHUE: Inverse mode at  81     Hk =   8.663
 MRCHUE: Inverse mode at  82     Hk =   7.645
 MRCHUE: Inverse mode at  83     Hk =   6.910
 MRCHUE: Inverse mode at  84     Hk =   6.390
 MRCHUE: Inverse mode at  85     Hk =   6.144
 MRCHUE: Inverse mode at  87     Hk =   3.583
 MRCHUE: Inverse mode at  88     Hk =   3.314

 MRCHDU: Convergence failed at  99  side 1    Res =  0.1586E+01
 MRCHDU: Convergence failed at 100  side 1    Res =  0.1689E+01
 MRCHDU: Convergence failed at  66  side 2    Res =  0.9728E+01
 MRCHDU: Convergence failed at  67  side 2    Res =  0.1291E+02
 MRCHDU: Convergence failed at  68  side 2    Res =  0.1471E+02
 MRCHDU: Convergence failed at  69  side 2    Res =  0.1672E+02
 MRCHDU: Convergence failed at  70  side 2    Res =  0.2211E+02
 MRCHDU: Convergence failed at  71  side 2    Res =  0.5535E+02
 MRCHDU: Convergence failed at  72  side 2    Res =  0.6126E+02
 MRCHDU: Convergence failed at  73  side 2    Res =  0.2190E+02
 MRCHDU: Convergence failed at  74  side 2    Res =  0.1338E+02
 MRCHDU: Convergence failed at  75  side 2    Res =  0.9382E+01
 MRCHDU: Convergence failed at  76  side 2    Res =  0.7174E+01
 MRCHDU: Convergence failed at  77  side 2    Res =  0.6007E+01
 MRCHDU: Convergence failed at  78  side 2    Res =  0.5176E+01
 MRCHDU: Convergence failed at  79  side 2    Res =  0.4480E+01
 MRCHDU: Convergence failed at  80  side 2    Res =  0.3858E+01
 MRCHDU: Convergence failed at  81  side 2    Res =  0.5410E+01
 MRCHDU: Convergence failed at  82  side 2    Res =  0.7343E+01
 MRCHDU: Convergence failed at  83  side 2    Res =  0.9030E+01
 MRCHDU: Convergence failed at  84  side 2    Res =  0.8840E+01
 MRCHDU: Convergence failed at  85  side 2    Res =  0.8941E+01
 Side 1  free  transition at x/c =  0.3356   47
 Side 2  free  transition at x/c =  0.9697   82

   1   rms: 0.6183E+00   max: -.5621E+01   C at   82  2   RLX: 0.089
       a =  0.000      CL =  1.3467
      Cm = -0.2265     CD =  0.00699   =>   CDf =  0.00721    CDp = -0.00022

[...]
       a = 12.000      CL =  3.1706
      Cm = -0.6836     CD =  7.05385   =>   CDf =  0.00238    CDp =  7.05147

 MRCHDU: Convergence failed at  28  side 1    Res =  0.1141E-01
 MRCHDU: Convergence failed at  98  side 1    Res =  0.4685E-02
 MRCHDU: Convergence failed at  99  side 1    Res =  0.4071E-01
 MRCHDU: Convergence failed at 100  side 1    Res =  0.4134E-01
 MRCHDU: Convergence failed at 101  side 1    Res =  0.3305E-01
 MRCHDU: Convergence failed at 102  side 1    Res =  0.4117E-01
 MRCHDU: Convergence failed at 103  side 1    Res =  0.5929E-01
 Side 1  free  transition at x/c =  0.0411   27
 Side 2 forced transition at x/c =  0.9998   81

   4   rms: 0.1936E+01   max: 0.3754E+02   C at   81  2   RLX: 0.040
       a = 12.000      CL =  3.0415
      Cm = -0.6519     CD = 11.45696   =>   CDf =  0.00237    CDp = 11.45459

 MRCHDU: Convergence failed at  28  side 1    Res =  0.1215E-01
 MRCHDU: Convergence failed at  99  side 1    Res =  0.3931E-01
 MRCHDU: Convergence failed at 100  side 1    Res =  0.4176E-01
 MRCHDU: Convergence failed at 101  side 1    Res =  0.3968E-01
 MRCHDU: Convergence failed at 102  side 1    Res =  0.6364E-01
 MRCHDU: Convergence failed at 103  side 1    Res =  0.5822E-01
 Side 1  free  transition at x/c =  0.0412   27
 Side 2 forced transition at x/c =  0.9998   81

   5   rms: 0.3045E+01   max: 0.4243E+02   C at   81  2   RLX: 0.035
       a = 12.000      CL =  2.9206
      Cm = -0.6195     CD =141.03857   =>   CDf =  0.00237    CDp =141.03621

 MRCHDU: Convergence failed at  28  side 1    Res =  0.1294E-01
 MRCHDU: Convergence failed at  99  side 1    Res =  0.2840E-02
 MRCHDU: Convergence failed at 100  side 1    Res =  0.5894E-01
 MRCHDU: Convergence failed at 101  side 1    Res =  0.4103E-01
 MRCHDU: Convergence failed at 102  side 1    Res =  0.5160E-01
 MRCHDU: Convergence failed at 103  side 1    Res =  0.4661E-01
 MRCHDU: Convergence failed at 104  side 1    Res =  0.2367E+00
 Side 1  free  transition at x/c =  0.0412   27
 Side 2 forced transition at x/c =  0.9998   81

   6   rms: 0.2748E+01   max: 0.3266E+02   C at   81  2   RLX: 0.030
       a = 12.000      CL =  2.8143
      Cm = -0.5903     CD =*********   =>   CDf =  0.00236    CDp =*********

 MRCHDU: Convergence failed at  28  side 1    Res =  0.1292E-01
 MRCHDU: Convergence failed at  99  side 1    Res =  0.6375E-02
 MRCHDU: Convergence failed at 100  side 1    Res =  0.5380E-01
 MRCHDU: Convergence failed at 101  side 1    Res =  0.3991E-01
 MRCHDU: Convergence failed at 102  side 1    Res =  0.5087E-01
 MRCHDU: Convergence failed at 103  side 1    Res =  0.3016E-01
 MRCHDU: Convergence failed at 104  side 1    Res =  0.7318E-02
 Side 1  free  transition at x/c =  0.0412   27
 Side 2 forced transition at x/c =  0.9998   81

   7   rms: 0.7705E+01   max: -.6117E+02   T at  105  2   RLX: 0.008
       a = 12.000      CL =  2.7920
      Cm = -0.5867     CD =*********   =>   CDf =  0.00236    CDp =*********

 MRCHDU: Convergence failed at  28  side 1    Res =  0.1206E-01
 MRCHDU: Convergence failed at  99  side 1    Res =  0.4997E-02
 MRCHDU: Convergence failed at 100  side 1    Res =  0.5249E-01
 MRCHDU: Convergence failed at 101  side 1    Res =  0.4199E-01
 MRCHDU: Convergence failed at 102  side 1    Res =  0.5445E-01
 MRCHDU: Convergence failed at 103  side 1    Res =  0.2355E-01
 MRCHDU: Convergence failed at 104  side 1    Res =  0.5471E-02
 Side 1  free  transition at x/c =  0.0412   27
 Side 2 forced transition at x/c =  0.9998   81

   8   rms: 0.5575E+01   max: 0.5247E+02   T at  103  2   RLX: 0.029
       a = 12.000      CL =  2.7835
      Cm = -0.5840     CD =*********   =>   CDf =  0.00235    CDp =*********

 MRCHDU: Convergence failed at  28  side 1    Res =  0.1333E-01
 MRCHDU: Convergence failed at  99  side 1    Res =  0.8291E-02
 MRCHDU: Convergence failed at 100  side 1    Res =  0.5068E-01
 MRCHDU: Convergence failed at 101  side 1    Res =  0.4722E-01
 MRCHDU: Convergence failed at 102  side 1    Res =  0.8335E-01
 MRCHDU: Convergence failed at 103  side 1    Res =  0.6514E-01
 MRCHDU: Convergence failed at 104  side 1    Res =  0.2981E-01
 Side 1  free  transition at x/c =  0.0412   27
 Side 2 forced transition at x/c =  0.9998   81

   9   rms: 0.1856E+01   max: 0.3252E+02   C at   81  2   RLX: 0.046
       a = 12.000      CL =  2.6533
      Cm = -0.5550     CD =*********   =>   CDf =  0.00236    CDp =*********

 MRCHDU: Convergence failed at  28  side 1    Res =  0.1333E-01
 MRCHDU: Convergence failed at 100  side 1    Res =  0.5683E-01
 MRCHDU: Convergence failed at 101  side 1    Res =  0.4995E-01
 MRCHDU: Convergence failed at 102  side 1    Res =  0.7998E-01
 MRCHDU: Convergence failed at 103  side 1    Res =  0.1970E+00
 MRCHDU: Convergence failed at 104  side 1    Res =  0.3466E+00
 Side 1  free  transition at x/c =  0.0412   27
 Side 2 forced transition at x/c =  0.9998   81

  10   rms: 0.9485E+01   max: -.8536E+02   T at  105  2   RLX: 0.006
       a = 12.000      CL =  2.6155
      Cm = -0.5447     CD =*********   =>   CDf =  0.00237    CDp =*********

 MRCHDU: Convergence failed at  28  side 1    Res =  0.1255E-01
 MRCHDU: Convergence failed at 100  side 1    Res =  0.6346E-01
 MRCHDU: Convergence failed at 101  side 1    Res =  0.5158E-01
 MRCHDU: Convergence failed at 102  side 1    Res =  0.7910E-01
 MRCHDU: Convergence failed at 103  side 1    Res =  0.1528E+00
 MRCHDU: Convergence failed at 104  side 1    Res =  0.3147E-01
 Side 1  free  transition at x/c =  0.0412   27
 Side 2 forced transition at x/c =  0.9998   81

  11   rms: 0.8165E+01   max: 0.8039E+02   T at  103  2   RLX: 0.019
       a = 12.000      CL =  2.6387
      Cm = -0.5494     CD =*********   =>   CDf =  0.00236    CDp =*********

 MRCHDU: Convergence failed at  28  side 1    Res =  0.1370E-01
 MRCHDU: Convergence failed at 100  side 1    Res =  0.6329E-01
 MRCHDU: Convergence failed at 101  side 1    Res =  0.5343E-01
 MRCHDU: Convergence failed at 102  side 1    Res =  0.6923E-01
 MRCHDU: Convergence failed at 103  side 1    Res =  0.4014E+00
 MRCHDU: Convergence failed at 104  side 1    Res =  0.8530E+00
 Side 1  free  transition at x/c =  0.0412   27
 Side 2 forced transition at x/c =  0.9998   81

  12   rms: 0.2426E+01   max: 0.3196E+02   C at   81  2   RLX: 0.029
       a = 12.000      CL =  2.5544
      Cm = -0.5281     CD =*********   =>   CDf =  0.00237    CDp =*********

 MRCHDU: Convergence failed at  28  side 1    Res =  0.1376E-01
 MRCHDU: Convergence failed at  99  side 1    Res =  0.5044E-01
 MRCHDU: Convergence failed at 100  side 1    Res =  0.1164E+00
 MRCHDU: Convergence failed at 101  side 1    Res =  0.8191E-01
 MRCHDU: Convergence failed at 102  side 1    Res =  0.7430E-01
 MRCHDU: Convergence failed at 103  side 1    Res =  0.2234E+00
 MRCHDU: Convergence failed at 104  side 1    Res =  0.4939E-01
 Side 1  free  transition at x/c =  0.0412   27
 Side 2 forced transition at x/c =  0.9998   81

  13   rms: 0.2297E+01   max: 0.3345E+02   C at   81  2   RLX: 0.031
       a = 12.000      CL =  2.4669
      Cm = -0.5106     CD =*********   =>   CDf =  0.00236    CDp =*********

 MRCHDU: Convergence failed at  28  side 1    Res =  0.1280E-01
 MRCHDU: Convergence failed at  99  side 1    Res =  0.7397E-01
 MRCHDU: Convergence failed at 100  side 1    Res =  0.1779E+00
 MRCHDU: Convergence failed at 101  side 1    Res =  0.6811E-01
 MRCHDU: Convergence failed at 102  side 1    Res =  0.7333E-01
 MRCHDU: Convergence failed at 103  side 1    Res =  0.2193E+00
 MRCHDU: Convergence failed at 104  side 1    Res =  0.4276E-01
 Side 1  free  transition at x/c =  0.0412   27
 Side 2 forced transition at x/c =  0.9998   81

  14   rms: 0.1042E+02   max: -.1290E+03   C at  105  2   RLX: 0.004
       a = 12.000      CL =  2.4750
      Cm = -0.5127     CD =*********   =>   CDf =  0.00237    CDp =*********

 MRCHDU: Convergence failed at  28  side 1    Res =  0.1349E-01
 MRCHDU: Convergence failed at  99  side 1    Res =  0.8598E-01
 MRCHDU: Convergence failed at 100  side 1    Res =  0.1583E+00
 MRCHDU: Convergence failed at 101  side 1    Res =  0.6773E-01
 MRCHDU: Convergence failed at 102  side 1    Res =  0.7212E-01
 MRCHDU: Convergence failed at 103  side 1    Res =  0.5405E+00
 MRCHDU: Convergence failed at 104  side 1    Res =  0.5232E-01
 Side 1  free  transition at x/c =  0.0412   27
 Side 2 forced transition at x/c =  0.9998   81

  15   rms: 0.1304E+02   max: -.1431E+03   T at  105  2   RLX: 0.003
       a = 12.000      CL =  2.4477
      Cm = -0.5062     CD =*********   =>   CDf =  0.00237    CDp =*********
 VISCAL:  Convergence failed
 Calculating wake trajectory ...
 Calculating source influence matrix ...

 Solving BL system ...

 MRCHDU: Convergence failed at  28  side 1    Res =  0.1259E-01
 MRCHDU: Convergence failed at  99  side 1    Res =  0.7607E-01
 MRCHDU: Convergence failed at 100  side 1    Res =  0.1563E+00
 MRCHDU: Convergence failed at 101  side 1    Res =  0.6650E-01
 MRCHDU: Convergence failed at 102  side 1    Res =  0.6985E-01
 MRCHDU: Convergence failed at 103  side 1    Res =  0.4314E+00
 MRCHDU: Convergence failed at 104  side 1    Res =  0.3999E-01
 Side 1  free  transition at x/c =  0.0412   27
 Side 2 forced transition at x/c =  0.9998   81

   1   rms: 0.6445E+01   max: 0.7158E+02   T at  103  2   RLX: 0.017
       a = 12.500      CL =  2.4604
      Cm = -0.5093     CD =*********   =>   CDf =  0.00237    CDp =*********

 MRCHDU: Convergence failed at  28  side 1    Res =  0.1415E-01
 MRCHDU: Convergence failed at  99  side 1    Res =  0.1126E+00
 MRCHDU: Convergence failed at 100  side 1    Res =  0.8931E-01
 MRCHDU: Convergence failed at 101  side 1    Res =  0.6274E-01
 MRCHDU: Convergence failed at 102  side 1    Res =  0.6686E-01
 MRCHDU: Convergence failed at 103  side 1    Res =  0.3679E+00
 MRCHDU: Convergence failed at 104  side 1    Res =  0.1618E+00
 Side 1  free  transition at x/c =  0.0412   27
 Side 2 forced transition at x/c =  0.9998   81

   2   rms: 0.2511E+01   max: -.3203E+02   T at  105  2   RLX: 0.016
       a = 12.500      CL =  2.4171
      Cm = -0.4997     CD =+Infinity   =>   CDf =  0.00238    CDp =+Infinity

 MRCHDU: Convergence failed at  28  side 1    Res =  0.1397E-01
 MRCHDU: Convergence failed at  99  side 1    Res =  0.2932E+00
 MRCHDU: Convergence failed at 100  side 1    Res =  0.6729E-01
 MRCHDU: Convergence failed at 101  side 1    Res =  0.5889E-01
 MRCHDU: Convergence failed at 102  side 1    Res =  0.6452E-01
 MRCHDU: Convergence failed at 103  side 1    Res =  0.4693E+00
 MRCHDU: Convergence failed at 104  side 1    Res =  0.5998E-01
 Side 1  free  transition at x/c =  0.0412   27
 Side 2 forced transition at x/c =  0.9998   81

   3   rms: 0.4783E+01   max: -.8024E+02   T at  105  2   RLX: 0.006
       a = 12.500      CL =  2.3935
      Cm = -0.4938     CD =+Infinity   =>   CDf =  0.00238    CDp =+Infinity

 MRCHDU: Convergence failed at  28  side 1    Res =  0.1369E-01
 MRCHDU: Convergence failed at  99  side 1    Res =  0.2928E+00
 MRCHDU: Convergence failed at 100  side 1    Res =  0.6851E-01
 MRCHDU: Convergence failed at 101  side 1    Res =  0.5836E-01
 MRCHDU: Convergence failed at 102  side 1    Res =  0.6305E-01
 MRCHDU: Convergence failed at 103  side 1    Res =  0.4121E+00
 MRCHDU: Convergence failed at 104  side 1    Res =  0.5262E-01
 Side 1  free  transition at x/c =  0.0412   27
 Side 2 forced transition at x/c =  0.9998   81

   4   rms: 0.1144E+02   max: -.1493E+03   T at  105  2   RLX: 0.003
       a = 12.500      CL =  2.3727
      Cm = -0.4883     CD =+Infinity   =>   CDf =  0.00237    CDp =+Infinity

 MRCHDU: Convergence failed at  28  side 1    Res =  0.1313E-01
 MRCHDU: Convergence failed at  99  side 1    Res =  0.6249E-01
 Side 1  free  transition at x/c =  0.0412   27
 Side 2 forced transition at x/c =  0.9998   81

   5   rms: 0.3708E+02   max: 0.2122E+03   C at  104  1   RLX: 0.007
       a = 12.500      CL =  2.3506
      Cm = -0.4881     CD =+Infinity   =>   CDf =  0.00237    CDp =+Infinity

 MRCHDU: Convergence failed at  28  side 1    Res =  0.1263E-01
 MRCHDU: Convergence failed at  98  side 1    Res =  0.7579E-01
 MRCHDU: Convergence failed at  99  side 1    Res =  0.8129E-01
 MRCHDU: Convergence failed at 100  side 1    Res =  0.6991E-01
 MRCHDU: Convergence failed at 101  side 1    Res =  0.3720E-01
 MRCHDU: Convergence failed at 102  side 1    Res =  0.4411E-01
 MRCHDU: Convergence failed at 103  side 1    Res =  0.1435E+00
 MRCHDU: Convergence failed at 104  side 1    Res =  0.3240E-01
 Side 1  free  transition at x/c =  0.0411   27
 Side 2 forced transition at x/c =  0.9998   81

   6   rms: 0.8527E+01   max: 0.1090E+03   T at  104  2   RLX: 0.014
       a = 12.500      CL =  2.3633
      Cm = -0.4900     CD =+Infinity   =>   CDf =  0.00239    CDp =+Infinity

 MRCHDU: Convergence failed at  28  side 1    Res =  0.1459E-01
 MRCHDU: Convergence failed at  98  side 1    Res =  0.8152E-01
 MRCHDU: Convergence failed at  99  side 1    Res =  0.8115E-01
 MRCHDU: Convergence failed at 100  side 1    Res =  0.7043E-01
 MRCHDU: Convergence failed at 101  side 1    Res =  0.3686E-01
 MRCHDU: Convergence failed at 102  side 1    Res =  0.4250E-01
 MRCHDU: Convergence failed at 103  side 1    Res =  0.2284E+00
 MRCHDU: Convergence failed at 104  side 1    Res =  0.8290E-01
 Side 1  free  transition at x/c =  0.0412   27
 Side 2 forced transition at x/c =  0.9998   81

   7   rms: 0.3575E+01   max: -.4915E+02   T at  105  2   RLX: 0.010
       a = 12.500      CL =  2.3316
      Cm = -0.4829     CD =+Infinity   =>   CDf =  0.00239    CDp =+Infinity

 MRCHDU: Convergence failed at  28  side 1    Res =  0.1418E-01
 MRCHDU: Convergence failed at  98  side 1    Res =  0.8021E-01
 MRCHDU: Convergence failed at  99  side 1    Res =  0.8158E-01
 MRCHDU: Convergence failed at 100  side 1    Res =  0.7034E-01
 MRCHDU: Convergence failed at 101  side 1    Res =  0.3711E-01
 MRCHDU: Convergence failed at 102  side 1    Res =  0.4377E-01
 MRCHDU: Convergence failed at 103  side 1    Res =  0.1572E+00
 MRCHDU: Convergence failed at 104  side 1    Res =  0.5815E-01
 Side 1  free  transition at x/c =  0.0412   27
 Side 2 forced transition at x/c =  0.9998   81

   8   rms: 0.5567E+01   max: -.6881E+02   T at  104  2   RLX: 0.007
       a = 12.500      CL =  2.3013
      Cm = -0.4756     CD =+Infinity   =>   CDf =  0.00239    CDp =+Infinity

 MRCHDU: Convergence failed at  28  side 1    Res =  0.1353E-01
 MRCHDU: Convergence failed at  98  side 1    Res =  0.7908E-01
 MRCHDU: Convergence failed at  99  side 1    Res =  0.8101E-01
 MRCHDU: Convergence failed at 100  side 1    Res =  0.7166E-01
 MRCHDU: Convergence failed at 101  side 1    Res =  0.3746E-01
 MRCHDU: Convergence failed at 102  side 1    Res =  0.4246E-01
 MRCHDU: Convergence failed at 103  side 1    Res =  0.1935E+00
 MRCHDU: Convergence failed at 104  side 1    Res =  0.4287E-01
 Side 1  free  transition at x/c =  0.0411   27
 Side 2 forced transition at x/c =  0.9998   81

   9   rms: 0.2517E+02   max: -.4095E+03   T at  104  2   RLX: 0.001
       a = 12.500      CL =  2.2882
      Cm = -0.4724     CD =+Infinity   =>   CDf =  0.00239    CDp =+Infinity

 MRCHDU: Convergence failed at  28  side 1    Res =  0.1295E-01
 MRCHDU: Convergence failed at  98  side 1    Res =  0.7965E-01
 MRCHDU: Convergence failed at  99  side 1    Res =  0.8172E-01
 MRCHDU: Convergence failed at 100  side 1    Res =  0.7198E-01
 MRCHDU: Convergence failed at 101  side 1    Res =  0.3770E-01
 MRCHDU: Convergence failed at 102  side 1    Res =  0.4270E-01
 MRCHDU: Convergence failed at 103  side 1    Res =  0.1500E+00
 MRCHDU: Convergence failed at 104  side 1    Res =  0.3587E-01
 Side 1  free  transition at x/c =  0.0411   27
 Side 2 forced transition at x/c =  0.9998   81

  10   rms: 0.1913E+02   max: 0.3217E+03   T at  104  2   RLX: 0.005
       a = 12.500      CL =  2.3098
      Cm = -0.4775     CD =+Infinity   =>   CDf =  0.00238    CDp =+Infinity

 MRCHDU: Convergence failed at  28  side 1    Res =  0.1432E-01
 MRCHDU: Convergence failed at  98  side 1    Res =  0.8272E-01
 MRCHDU: Convergence failed at  99  side 1    Res =  0.8305E-01
 MRCHDU: Convergence failed at 100  side 1    Res =  0.7329E-01
 MRCHDU: Convergence failed at 101  side 1    Res =  0.3749E-01
 MRCHDU: Convergence failed at 102  side 1    Res =  0.4119E-01
 MRCHDU: Convergence failed at 103  side 1    Res =  0.1809E+00
 MRCHDU: Convergence failed at 104  side 1    Res =  0.8067E-01
 Side 1  free  transition at x/c =  0.0411   27
 Side 2 forced transition at x/c =  0.9998   81

  11   rms: 0.4757E+01   max: -.6499E+02   T at  104  2   RLX: 0.008
       a = 12.500      CL =  2.2807
      Cm = -0.4709     CD =+Infinity   =>   CDf =  0.00239    CDp =+Infinity

 MRCHDU: Convergence failed at  28  side 1    Res =  0.1376E-01
 MRCHDU: Convergence failed at  98  side 1    Res =  0.8043E-01
 MRCHDU: Convergence failed at  99  side 1    Res =  0.8547E-01
 MRCHDU: Convergence failed at 100  side 1    Res =  0.7404E-01
 MRCHDU: Convergence failed at 101  side 1    Res =  0.3584E-01
 MRCHDU: Convergence failed at 102  side 1    Res =  0.3941E-01
 MRCHDU: Convergence failed at 103  side 1    Res =  0.1302E+00
 MRCHDU: Convergence failed at 104  side 1    Res =  0.6586E-01
 Side 1  free  transition at x/c =  0.0411   27
 Side 2 forced transition at x/c =  0.9998   81

  12   rms: 0.1598E+02   max: -.2897E+03   T at  104  2   RLX: 0.002
       a = 12.500      CL =  2.2684
      Cm = -0.4677     CD =+Infinity   =>   CDf =  0.00239    CDp =+Infinity

 MRCHDU: Convergence failed at  28  side 1    Res =  0.1331E-01
 MRCHDU: Convergence failed at  98  side 1    Res =  0.8074E-01
 MRCHDU: Convergence failed at  99  side 1    Res =  0.8579E-01
 MRCHDU: Convergence failed at 100  side 1    Res =  0.7452E-01
 MRCHDU: Convergence failed at 101  side 1    Res =  0.3578E-01
 MRCHDU: Convergence failed at 102  side 1    Res =  0.3883E-01
 MRCHDU: Convergence failed at 103  side 1    Res =  0.1260E+00
 MRCHDU: Convergence failed at 104  side 1    Res =  0.5298E-01
 Side 1  free  transition at x/c =  0.0411   27
 Side 2 forced transition at x/c =  0.9998   81

  13   rms: 0.2719E+03   max: -.4536E+04   T at  104  2   RLX: 0.000
       a = 12.500      CL =  2.2585
      Cm = -0.4652     CD =+Infinity   =>   CDf =  0.00239    CDp =+Infinity

 MRCHDU: Convergence failed at  28  side 1    Res =  0.1273E-01
 MRCHDU: Convergence failed at  98  side 1    Res =  0.8044E-01
 MRCHDU: Convergence failed at  99  side 1    Res =  0.8569E-01
 MRCHDU: Convergence failed at 100  side 1    Res =  0.7431E-01
 MRCHDU: Convergence failed at 101  side 1    Res =  0.3572E-01
 MRCHDU: Convergence failed at 102  side 1    Res =  0.3875E-01
 MRCHDU: Convergence failed at 103  side 1    Res =  0.1187E+00
 MRCHDU: Convergence failed at 104  side 1    Res =  0.4343E-01
 Side 1  free  transition at x/c =  0.0411   27
 Side 2 forced transition at x/c =  0.9998   81

  14   rms: 0.1852E+02   max: -.3039E+03   T at  104  2   RLX: 0.002
       a = 12.500      CL =  2.2619
      Cm = -0.4661     CD =+Infinity   =>   CDf =  0.00238    CDp =+Infinity

 MRCHDU: Convergence failed at  28  side 1    Res =  0.1311E-01
 MRCHDU: Convergence failed at  98  side 1    Res =  0.8016E-01
 MRCHDU: Convergence failed at  99  side 1    Res =  0.8554E-01
 MRCHDU: Convergence failed at 100  side 1    Res =  0.7513E-01
 MRCHDU: Convergence failed at 101  side 1    Res =  0.3602E-01
 MRCHDU: Convergence failed at 102  side 1    Res =  0.3878E-01
 MRCHDU: Convergence failed at 103  side 1    Res =  0.1248E+00
 MRCHDU: Convergence failed at 104  side 1    Res =  0.5193E-01
 Side 1  free  transition at x/c =  0.0411   27
 Side 2 forced transition at x/c =  0.9998   81

  15   rms: 0.3119E+02   max: 0.4552E+03   T at  103  2   RLX: 0.003
       a = 12.500      CL =  2.2951
      Cm = -0.4741     CD =+Infinity   =>   CDf =  0.00238    CDp =+Infinity
 VISCAL:  Convergence failed
